1
                                              N A S T R A N    F I L E    A N D    S Y S T E M    P A R A M E T E R    E C H O
                                                                                                                                                          PAGE    1


0                                                               * * * * * * * * * * * * * * * *
                                                                 *                             *
                                                                 *        FEM4C SOLUTION      *
                                                                 *                             *
                                                                 * * * * * * * * * * * * * * * *


0SOLUTION SUMMARY:
     PROBLEM TITLE........ FEM4C HIGH PERFORMANCE FINITE ELEMENT ANALYSIS
     SOLUTION TYPE........ STATIC ANALYSIS (SOL 101)
     ANALYSIS DATE........ Sat Oct 11 01:41:55 2025
     PROBLEM SIZE......... 297 NODES, 256 ELEMENTS, 594 DOF

1                                                                          D I S P L A C E M E N T   V E C T O R
                                                                                                                                                          PAGE    2
0
      POINT ID.   TYPE          T1             T2             T3             R1             R2             R3
             1      G       0.000000E+00   0.000000E+00   0.000000E+00   0.000000E+00   0.000000E+00   0.000000E+00
             2      G      -8.422156E-08  -4.484427E-08   0.000000E+00   0.000000E+00   0.000000E+00   0.000000E+00
             3      G      -1.644930E-07  -1.244558E-07   0.000000E+00   0.000000E+00   0.000000E+00   0.000000E+00
             4      G      -2.437682E-07  -2.555184E-07   0.000000E+00   0.000000E+00   0.000000E+00   0.000000E+00
             5      G      -3.203228E-07  -4.352103E-07   0.000000E+00   0.000000E+00   0.000000E+00   0.000000E+00
             6      G      -3.941653E-07  -6.619454E-07   0.000000E+00   0.000000E+00   0.000000E+00   0.000000E+00
             7      G      -4.653220E-07  -9.339797E-07   0.000000E+00   0.000000E+00   0.000000E+00   0.000000E+00
             8      G      -5.337937E-07  -1.249650E-06   0.000000E+00   0.000000E+00   0.000000E+00   0.000000E+00
             9      G      -5.995805E-07  -1.607275E-06   0.000000E+00   0.000000E+00   0.000000E+00   0.000000E+00
            10      G      -6.626821E-07  -2.005178E-06   0.000000E+00   0.000000E+00   0.000000E+00   0.000000E+00
            11      G      -7.230985E-07  -2.441681E-06   0.000000E+00   0.000000E+00   0.000000E+00   0.000000E+00
            12      G      -7.808297E-07  -2.915105E-06   0.000000E+00   0.000000E+00   0.000000E+00   0.000000E+00
            13      G      -8.358758E-07  -3.423771E-06   0.000000E+00   0.000000E+00   0.000000E+00   0.000000E+00
            14      G      -8.882367E-07  -3.966003E-06   0.000000E+00   0.000000E+00   0.000000E+00   0.000000E+00
            15      G      -9.379124E-07  -4.540120E-06   0.000000E+00   0.000000E+00   0.000000E+00   0.000000E+00
            16      G      -9.849029E-07  -5.144446E-06   0.000000E+00   0.000000E+00   0.000000E+00   0.000000E+00
            17      G      -1.029208E-06  -5.777302E-06   0.000000E+00   0.000000E+00   0.000000E+00   0.000000E+00
            18      G      -1.070828E-06  -6.437010E-06   0.000000E+00   0.000000E+00   0.000000E+00   0.000000E+00
            19      G      -1.109764E-06  -7.121891E-06   0.000000E+00   0.000000E+00   0.000000E+00   0.000000E+00
            20      G      -1.146013E-06  -7.830267E-06   0.000000E+00   0.000000E+00   0.000000E+00   0.000000E+00
            21      G      -1.179578E-06  -8.560461E-06   0.000000E+00   0.000000E+00   0.000000E+00   0.000000E+00
            22      G      -1.210458E-06  -9.310793E-06   0.000000E+00   0.000000E+00   0.000000E+00   0.000000E+00
            23      G      -1.238652E-06  -1.007959E-05   0.000000E+00   0.000000E+00   0.000000E+00   0.000000E+00
            24      G      -1.264161E-06  -1.086516E-05   0.000000E+00   0.000000E+00   0.000000E+00   0.000000E+00
            25      G      -1.286985E-06  -1.166584E-05   0.000000E+00   0.000000E+00   0.000000E+00   0.000000E+00
            26      G      -1.307124E-06  -1.247995E-05   0.000000E+00   0.000000E+00   0.000000E+00   0.000000E+00
            27      G      -1.324577E-06  -1.330580E-05   0.000000E+00   0.000000E+00   0.000000E+00   0.000000E+00
            28      G      -1.339346E-06  -1.414172E-05   0.000000E+00   0.000000E+00   0.000000E+00   0.000000E+00
            29      G      -1.351428E-06  -1.498603E-05   0.000000E+00   0.000000E+00   0.000000E+00   0.000000E+00
            30      G      -1.360840E-06  -1.583706E-05   0.000000E+00   0.000000E+00   0.000000E+00   0.000000E+00
            31      G      -1.367550E-06  -1.669319E-05   0.000000E+00   0.000000E+00   0.000000E+00   0.000000E+00
            32      G      -1.371238E-06  -1.755251E-05   0.000000E+00   0.000000E+00   0.000000E+00   0.000000E+00
            33      G      -1.372246E-06  -1.841224E-05   0.000000E+00   0.000000E+00   0.000000E+00   0.000000E+00
            34      G       0.000000E+00   0.000000E+00   0.000000E+00   0.000000E+00   0.000000E+00   0.000000E+00
            35      G      -6.022422E-08  -3.451172E-08   0.000000E+00   0.000000E+00   0.000000E+00   0.000000E+00
            36      G      -1.227743E-07  -1.162976E-07   0.000000E+00   0.000000E+00   0.000000E+00   0.000000E+00
            37      G      -1.819513E-07  -2.472794E-07   0.000000E+00   0.000000E+00   0.000000E+00   0.000000E+00
            38      G      -2.393814E-07  -4.273286E-07   0.000000E+00   0.000000E+00   0.000000E+00   0.000000E+00
            39      G      -2.947583E-07  -6.543303E-07   0.000000E+00   0.000000E+00   0.000000E+00   0.000000E+00
            40      G      -3.481268E-07  -9.266498E-07   0.000000E+00   0.000000E+00   0.000000E+00   0.000000E+00
            41      G      -3.994807E-07  -1.242601E-06   0.000000E+00   0.000000E+00   0.000000E+00   0.000000E+00
            42      G      -4.488208E-07  -1.600509E-06   0.000000E+00   0.000000E+00   0.000000E+00   0.000000E+00
            43      G      -4.961469E-07  -1.998694E-06   0.000000E+00   0.000000E+00   0.000000E+00   0.000000E+00
            44      G      -5.414592E-07  -2.435478E-06   0.000000E+00   0.000000E+00   0.000000E+00   0.000000E+00
            45      G      -5.847577E-07  -2.909184E-06   0.000000E+00   0.000000E+00   0.000000E+00   0.000000E+00
            46      G      -6.260422E-07  -3.418132E-06   0.000000E+00   0.000000E+00   0.000000E+00   0.000000E+00
            47      G      -6.653129E-07  -3.960646E-06   0.000000E+00   0.000000E+00   0.000000E+00   0.000000E+00
            48      G      -7.025697E-07  -4.535045E-06   0.000000E+00   0.000000E+00   0.000000E+00   0.000000E+00
            49      G      -7.378126E-07  -5.139653E-06   0.000000E+00   0.000000E+00   0.000000E+00   0.000000E+00
            50      G      -7.710416E-07  -5.772791E-06   0.000000E+00   0.000000E+00   0.000000E+00   0.000000E+00
            51      G      -8.022567E-07  -6.432781E-06   0.000000E+00   0.000000E+00   0.000000E+00   0.000000E+00
            52      G      -8.314580E-07  -7.117944E-06   0.000000E+00   0.000000E+00   0.000000E+00   0.000000E+00
            53      G      -8.586454E-07  -7.826602E-06   0.000000E+00   0.000000E+00   0.000000E+00   0.000000E+00
            54      G      -8.838189E-07  -8.557077E-06   0.000000E+00   0.000000E+00   0.000000E+00   0.000000E+00
            55      G      -9.069785E-07  -9.307692E-06   0.000000E+00   0.000000E+00   0.000000E+00   0.000000E+00
            56      G      -9.281243E-07  -1.007677E-05   0.000000E+00   0.000000E+00   0.000000E+00   0.000000E+00
            57      G      -9.472561E-07  -1.086262E-05   0.000000E+00   0.000000E+00   0.000000E+00   0.000000E+00
            58      G      -9.643741E-07  -1.166358E-05   0.000000E+00   0.000000E+00   0.000000E+00   0.000000E+00
            59      G      -9.794782E-07  -1.247797E-05   0.000000E+00   0.000000E+00   0.000000E+00   0.000000E+00
            60      G      -9.925684E-07  -1.330411E-05   0.000000E+00   0.000000E+00   0.000000E+00   0.000000E+00
            61      G      -1.003645E-06  -1.414031E-05   0.000000E+00   0.000000E+00   0.000000E+00   0.000000E+00
            62      G      -1.012707E-06  -1.498490E-05   0.000000E+00   0.000000E+00   0.000000E+00   0.000000E+00
            63      G      -1.019753E-06  -1.583621E-05   0.000000E+00   0.000000E+00   0.000000E+00   0.000000E+00
            64      G      -1.024800E-06  -1.669261E-05   0.000000E+00   0.000000E+00   0.000000E+00   0.000000E+00
            65      G      -1.027790E-06  -1.755229E-05   0.000000E+00   0.000000E+00   0.000000E+00   0.000000E+00
            66      G      -1.028670E-06  -1.841227E-05   0.000000E+00   0.000000E+00   0.000000E+00   0.000000E+00
            67      G       0.000000E+00   0.000000E+00   0.000000E+00   0.000000E+00   0.000000E+00   0.000000E+00
            68      G      -3.932335E-08  -2.794300E-08   0.000000E+00   0.000000E+00   0.000000E+00   0.000000E+00
            69      G      -8.116325E-08  -1.100149E-07   0.000000E+00   0.000000E+00   0.000000E+00   0.000000E+00
            70      G      -1.209627E-07  -2.414900E-07   0.000000E+00   0.000000E+00   0.000000E+00   0.000000E+00
            71      G      -1.591695E-07  -4.216815E-07   0.000000E+00   0.000000E+00   0.000000E+00   0.000000E+00
            72      G      -1.960947E-07  -6.488954E-07   0.000000E+00   0.000000E+00   0.000000E+00   0.000000E+00
            73      G      -2.316724E-07  -9.214131E-07   0.000000E+00   0.000000E+00   0.000000E+00   0.000000E+00
            74      G      -2.659088E-07  -1.237566E-06   0.000000E+00   0.000000E+00   0.000000E+00   0.000000E+00
            75      G      -2.988021E-07  -1.595675E-06   0.000000E+00   0.000000E+00   0.000000E+00   0.000000E+00
            76      G      -3.303529E-07  -1.994062E-06   0.000000E+00   0.000000E+00   0.000000E+00   0.000000E+00
            77      G      -3.605611E-07  -2.431048E-06   0.000000E+00   0.000000E+00   0.000000E+00   0.000000E+00
            78      G      -3.894267E-07  -2.904955E-06   0.000000E+00   0.000000E+00   0.000000E+00   0.000000E+00
            79      G      -4.169498E-07  -3.414105E-06   0.000000E+00   0.000000E+00   0.000000E+00   0.000000E+00
            80      G      -4.431302E-07  -3.956819E-06   0.000000E+00   0.000000E+00   0.000000E+00   0.000000E+00
            81      G      -4.679681E-07  -4.531420E-06   0.000000E+00   0.000000E+00   0.000000E+00   0.000000E+00
            82      G      -4.914633E-07  -5.136230E-06   0.000000E+00   0.000000E+00   0.000000E+00   0.000000E+00
            83      G      -5.136160E-07  -5.769569E-06   0.000000E+00   0.000000E+00   0.000000E+00   0.000000E+00
            84      G      -5.344261E-07  -6.429760E-06   0.000000E+00   0.000000E+00   0.000000E+00   0.000000E+00
            85      G      -5.538936E-07  -7.115124E-06   0.000000E+00   0.000000E+00   0.000000E+00   0.000000E+00
            86      G      -5.720185E-07  -7.823984E-06   0.000000E+00   0.000000E+00   0.000000E+00   0.000000E+00
            87      G      -5.888009E-07  -8.554661E-06   0.000000E+00   0.000000E+00   0.000000E+00   0.000000E+00
            88      G      -6.042406E-07  -9.305476E-06   0.000000E+00   0.000000E+00   0.000000E+00   0.000000E+00
            89      G      -6.183378E-07  -1.007475E-05   0.000000E+00   0.000000E+00   0.000000E+00   0.000000E+00
            90      G      -6.310924E-07  -1.086081E-05   0.000000E+00   0.000000E+00   0.000000E+00   0.000000E+00
            91      G      -6.425043E-07  -1.166197E-05   0.000000E+00   0.000000E+00   0.000000E+00   0.000000E+00
            92      G      -6.525737E-07  -1.247656E-05   0.000000E+00   0.000000E+00   0.000000E+00   0.000000E+00
            93      G      -6.613006E-07  -1.330290E-05   0.000000E+00   0.000000E+00   0.000000E+00   0.000000E+00
            94      G      -6.686848E-07  -1.413930E-05   0.000000E+00   0.000000E+00   0.000000E+00   0.000000E+00
            95      G      -6.747274E-07  -1.498410E-05   0.000000E+00   0.000000E+00   0.000000E+00   0.000000E+00
            96      G      -6.794109E-07  -1.583561E-05   0.000000E+00   0.000000E+00   0.000000E+00   0.000000E+00
            97      G      -6.828073E-07  -1.669216E-05   0.000000E+00   0.000000E+00   0.000000E+00   0.000000E+00
            98      G      -6.850724E-07  -1.755210E-05   0.000000E+00   0.000000E+00   0.000000E+00   0.000000E+00
            99      G      -6.856447E-07  -1.841267E-05   0.000000E+00   0.000000E+00   0.000000E+00   0.000000E+00
           100      G       0.000000E+00   0.000000E+00   0.000000E+00   0.000000E+00   0.000000E+00   0.000000E+00
           101      G      -1.946804E-08  -2.430596E-08   0.000000E+00   0.000000E+00   0.000000E+00   0.000000E+00
           102      G      -4.035833E-08  -1.061533E-07   0.000000E+00   0.000000E+00   0.000000E+00   0.000000E+00
           103      G      -6.036211E-08  -2.379892E-07   0.000000E+00   0.000000E+00   0.000000E+00   0.000000E+00
           104      G      -7.946847E-08  -4.183075E-07   0.000000E+00   0.000000E+00   0.000000E+00   0.000000E+00
           105      G      -9.792180E-08  -6.456313E-07   0.000000E+00   0.000000E+00   0.000000E+00   0.000000E+00
           106      G      -1.157131E-07  -9.182717E-07   0.000000E+00   0.000000E+00   0.000000E+00   0.000000E+00
           107      G      -1.328308E-07  -1.234546E-06   0.000000E+00   0.000000E+00   0.000000E+00   0.000000E+00
           108      G      -1.492775E-07  -1.592775E-06   0.000000E+00   0.000000E+00   0.000000E+00   0.000000E+00
           109      G      -1.650529E-07  -1.991283E-06   0.000000E+00   0.000000E+00   0.000000E+00   0.000000E+00
           110      G      -1.801570E-07  -2.428389E-06   0.000000E+00   0.000000E+00   0.000000E+00   0.000000E+00
           111      G      -1.945898E-07  -2.902417E-06   0.000000E+00   0.000000E+00   0.000000E+00   0.000000E+00
           112      G      -2.083514E-07  -3.411688E-06   0.000000E+00   0.000000E+00   0.000000E+00   0.000000E+00
           113      G      -2.214416E-07  -3.954524E-06   0.000000E+00   0.000000E+00   0.000000E+00   0.000000E+00
           114      G      -2.338605E-07  -4.529245E-06   0.000000E+00   0.000000E+00   0.000000E+00   0.000000E+00
           115      G      -2.456081E-07  -5.134175E-06   0.000000E+00   0.000000E+00   0.000000E+00   0.000000E+00
           116      G      -2.566845E-07  -5.767636E-06   0.000000E+00   0.000000E+00   0.000000E+00   0.000000E+00
           117      G      -2.670895E-07  -6.427947E-06   0.000000E+00   0.000000E+00   0.000000E+00   0.000000E+00
           118      G      -2.768233E-07  -7.113433E-06   0.000000E+00   0.000000E+00   0.000000E+00   0.000000E+00
           119      G      -2.858857E-07  -7.822413E-06   0.000000E+00   0.000000E+00   0.000000E+00   0.000000E+00
           120      G      -2.942769E-07  -8.553211E-06   0.000000E+00   0.000000E+00   0.000000E+00   0.000000E+00
           121      G      -3.019968E-07  -9.304147E-06   0.000000E+00   0.000000E+00   0.000000E+00   0.000000E+00
           122      G      -3.090454E-07  -1.007354E-05   0.000000E+00   0.000000E+00   0.000000E+00   0.000000E+00
           123      G      -3.154227E-07  -1.085972E-05   0.000000E+00   0.000000E+00   0.000000E+00   0.000000E+00
           124      G      -3.211287E-07  -1.166101E-05   0.000000E+00   0.000000E+00   0.000000E+00   0.000000E+00
           125      G      -3.261634E-07  -1.247572E-05   0.000000E+00   0.000000E+00   0.000000E+00   0.000000E+00
           126      G      -3.305267E-07  -1.330217E-05   0.000000E+00   0.000000E+00   0.000000E+00   0.000000E+00
           127      G      -3.342194E-07  -1.413870E-05   0.000000E+00   0.000000E+00   0.000000E+00   0.000000E+00
           128      G      -3.372375E-07  -1.498362E-05   0.000000E+00   0.000000E+00   0.000000E+00   0.000000E+00
           129      G      -3.395900E-07  -1.583526E-05   0.000000E+00   0.000000E+00   0.000000E+00   0.000000E+00
           130      G      -3.412381E-07  -1.669186E-05   0.000000E+00   0.000000E+00   0.000000E+00   0.000000E+00
           131      G      -3.426964E-07  -1.755182E-05   0.000000E+00   0.000000E+00   0.000000E+00   0.000000E+00
           132      G      -3.428908E-07  -1.841383E-05   0.000000E+00   0.000000E+00   0.000000E+00   0.000000E+00
           133      G       0.000000E+00   0.000000E+00   0.000000E+00   0.000000E+00   0.000000E+00   0.000000E+00
           134      G      -2.592029E-21  -2.314066E-08   0.000000E+00   0.000000E+00   0.000000E+00   0.000000E+00
           135      G      -5.162734E-21  -1.048576E-07   0.000000E+00   0.000000E+00   0.000000E+00   0.000000E+00
           136      G      -7.388290E-21  -2.368149E-07   0.000000E+00   0.000000E+00   0.000000E+00   0.000000E+00
           137      G      -9.285379E-21  -4.171848E-07   0.000000E+00   0.000000E+00   0.000000E+00   0.000000E+00
           138      G      -1.055083E-20  -6.445434E-07   0.000000E+00   0.000000E+00   0.000000E+00   0.000000E+00
           139      G      -1.089194E-20  -9.172243E-07   0.000000E+00   0.000000E+00   0.000000E+00   0.000000E+00
           140      G      -1.112013E-20  -1.233539E-06   0.000000E+00   0.000000E+00   0.000000E+00   0.000000E+00
           141      G      -1.143858E-20  -1.591809E-06   0.000000E+00   0.000000E+00   0.000000E+00   0.000000E+00
           142      G      -1.174658E-20  -1.990356E-06   0.000000E+00   0.000000E+00   0.000000E+00   0.000000E+00
           143      G      -1.246936E-20  -2.427503E-06   0.000000E+00   0.000000E+00   0.000000E+00   0.000000E+00
           144      G      -1.366255E-20  -2.901571E-06   0.000000E+00   0.000000E+00   0.000000E+00   0.000000E+00
           145      G      -1.549192E-20  -3.410883E-06   0.000000E+00   0.000000E+00   0.000000E+00   0.000000E+00
           146      G      -1.594053E-20  -3.953758E-06   0.000000E+00   0.000000E+00   0.000000E+00   0.000000E+00
           147      G      -1.558990E-20  -4.528520E-06   0.000000E+00   0.000000E+00   0.000000E+00   0.000000E+00
           148      G      -1.744614E-20  -5.133491E-06   0.000000E+00   0.000000E+00   0.000000E+00   0.000000E+00
           149      G      -1.994410E-20  -5.766991E-06   0.000000E+00   0.000000E+00   0.000000E+00   0.000000E+00
           150      G      -1.918572E-20  -6.427343E-06   0.000000E+00   0.000000E+00   0.000000E+00   0.000000E+00
           151      G      -1.880750E-20  -7.112869E-06   0.000000E+00   0.000000E+00   0.000000E+00   0.000000E+00
           152      G      -2.054503E-20  -7.821890E-06   0.000000E+00   0.000000E+00   0.000000E+00   0.000000E+00
           153      G      -2.013469E-20  -8.552727E-06   0.000000E+00   0.000000E+00   0.000000E+00   0.000000E+00
           154      G      -1.873831E-20  -9.303704E-06   0.000000E+00   0.000000E+00   0.000000E+00   0.000000E+00
           155      G      -1.872874E-20  -1.007314E-05   0.000000E+00   0.000000E+00   0.000000E+00   0.000000E+00
           156      G      -1.771254E-20  -1.085936E-05   0.000000E+00   0.000000E+00   0.000000E+00   0.000000E+00
           157      G      -1.381815E-20  -1.166068E-05   0.000000E+00   0.000000E+00   0.000000E+00   0.000000E+00
           158      G      -1.346406E-20  -1.247543E-05   0.000000E+00   0.000000E+00   0.000000E+00   0.000000E+00
           159      G      -1.713207E-20  -1.330193E-05   0.000000E+00   0.000000E+00   0.000000E+00   0.000000E+00
           160      G      -1.791944E-20  -1.413850E-05   0.000000E+00   0.000000E+00   0.000000E+00   0.000000E+00
           161      G      -1.530409E-20  -1.498346E-05   0.000000E+00   0.000000E+00   0.000000E+00   0.000000E+00
           162      G      -1.327450E-20  -1.583512E-05   0.000000E+00   0.000000E+00   0.000000E+00   0.000000E+00
           163      G      -1.701707E-20  -1.669185E-05   0.000000E+00   0.000000E+00   0.000000E+00   0.000000E+00
           164      G      -1.917820E-20  -1.755127E-05   0.000000E+00   0.000000E+00   0.000000E+00   0.000000E+00
           165      G      -1.788255E-20  -1.841610E-05   0.000000E+00   0.000000E+00   0.000000E+00   0.000000E+00
           166      G       0.000000E+00   0.000000E+00   0.000000E+00   0.000000E+00   0.000000E+00   0.000000E+00
           167      G       1.946804E-08  -2.430596E-08   0.000000E+00   0.000000E+00   0.000000E+00   0.000000E+00
           168      G       4.035833E-08  -1.061533E-07   0.000000E+00   0.000000E+00   0.000000E+00   0.000000E+00
           169      G       6.036211E-08  -2.379892E-07   0.000000E+00   0.000000E+00   0.000000E+00   0.000000E+00
           170      G       7.946847E-08  -4.183075E-07   0.000000E+00   0.000000E+00   0.000000E+00   0.000000E+00
           171      G       9.792180E-08  -6.456313E-07   0.000000E+00   0.000000E+00   0.000000E+00   0.000000E+00
           172      G       1.157131E-07  -9.182717E-07   0.000000E+00   0.000000E+00   0.000000E+00   0.000000E+00
           173      G       1.328308E-07  -1.234546E-06   0.000000E+00   0.000000E+00   0.000000E+00   0.000000E+00
           174      G       1.492775E-07  -1.592775E-06   0.000000E+00   0.000000E+00   0.000000E+00   0.000000E+00
           175      G       1.650529E-07  -1.991283E-06   0.000000E+00   0.000000E+00   0.000000E+00   0.000000E+00
           176      G       1.801570E-07  -2.428389E-06   0.000000E+00   0.000000E+00   0.000000E+00   0.000000E+00
           177      G       1.945898E-07  -2.902417E-06   0.000000E+00   0.000000E+00   0.000000E+00   0.000000E+00
           178      G       2.083514E-07  -3.411688E-06   0.000000E+00   0.000000E+00   0.000000E+00   0.000000E+00
           179      G       2.214416E-07  -3.954524E-06   0.000000E+00   0.000000E+00   0.000000E+00   0.000000E+00
           180      G       2.338605E-07  -4.529245E-06   0.000000E+00   0.000000E+00   0.000000E+00   0.000000E+00
           181      G       2.456081E-07  -5.134175E-06   0.000000E+00   0.000000E+00   0.000000E+00   0.000000E+00
           182      G       2.566845E-07  -5.767636E-06   0.000000E+00   0.000000E+00   0.000000E+00   0.000000E+00
           183      G       2.670895E-07  -6.427947E-06   0.000000E+00   0.000000E+00   0.000000E+00   0.000000E+00
           184      G       2.768233E-07  -7.113433E-06   0.000000E+00   0.000000E+00   0.000000E+00   0.000000E+00
           185      G       2.858857E-07  -7.822413E-06   0.000000E+00   0.000000E+00   0.000000E+00   0.000000E+00
           186      G       2.942769E-07  -8.553211E-06   0.000000E+00   0.000000E+00   0.000000E+00   0.000000E+00
           187      G       3.019968E-07  -9.304147E-06   0.000000E+00   0.000000E+00   0.000000E+00   0.000000E+00
           188      G       3.090454E-07  -1.007354E-05   0.000000E+00   0.000000E+00   0.000000E+00   0.000000E+00
           189      G       3.154227E-07  -1.085972E-05   0.000000E+00   0.000000E+00   0.000000E+00   0.000000E+00
           190      G       3.211287E-07  -1.166101E-05   0.000000E+00   0.000000E+00   0.000000E+00   0.000000E+00
           191      G       3.261634E-07  -1.247572E-05   0.000000E+00   0.000000E+00   0.000000E+00   0.000000E+00
           192      G       3.305267E-07  -1.330217E-05   0.000000E+00   0.000000E+00   0.000000E+00   0.000000E+00
           193      G       3.342194E-07  -1.413870E-05   0.000000E+00   0.000000E+00   0.000000E+00   0.000000E+00
           194      G       3.372375E-07  -1.498362E-05   0.000000E+00   0.000000E+00   0.000000E+00   0.000000E+00
           195      G       3.395900E-07  -1.583526E-05   0.000000E+00   0.000000E+00   0.000000E+00   0.000000E+00
           196      G       3.412381E-07  -1.669186E-05   0.000000E+00   0.000000E+00   0.000000E+00   0.000000E+00
           197      G       3.426964E-07  -1.755182E-05   0.000000E+00   0.000000E+00   0.000000E+00   0.000000E+00
           198      G       3.428908E-07  -1.841383E-05   0.000000E+00   0.000000E+00   0.000000E+00   0.000000E+00
           199      G       0.000000E+00   0.000000E+00   0.000000E+00   0.000000E+00   0.000000E+00   0.000000E+00
           200      G       3.932335E-08  -2.794300E-08   0.000000E+00   0.000000E+00   0.000000E+00   0.000000E+00
           201      G       8.116325E-08  -1.100149E-07   0.000000E+00   0.000000E+00   0.000000E+00   0.000000E+00
           202      G       1.209627E-07  -2.414900E-07   0.000000E+00   0.000000E+00   0.000000E+00   0.000000E+00
           203      G       1.591695E-07  -4.216815E-07   0.000000E+00   0.000000E+00   0.000000E+00   0.000000E+00
           204      G       1.960947E-07  -6.488954E-07   0.000000E+00   0.000000E+00   0.000000E+00   0.000000E+00
           205      G       2.316724E-07  -9.214131E-07   0.000000E+00   0.000000E+00   0.000000E+00   0.000000E+00
           206      G       2.659088E-07  -1.237566E-06   0.000000E+00   0.000000E+00   0.000000E+00   0.000000E+00
           207      G       2.988021E-07  -1.595675E-06   0.000000E+00   0.000000E+00   0.000000E+00   0.000000E+00
           208      G       3.303529E-07  -1.994062E-06   0.000000E+00   0.000000E+00   0.000000E+00   0.000000E+00
           209      G       3.605611E-07  -2.431048E-06   0.000000E+00   0.000000E+00   0.000000E+00   0.000000E+00
           210      G       3.894267E-07  -2.904955E-06   0.000000E+00   0.000000E+00   0.000000E+00   0.000000E+00
           211      G       4.169498E-07  -3.414105E-06   0.000000E+00   0.000000E+00   0.000000E+00   0.000000E+00
           212      G       4.431302E-07  -3.956819E-06   0.000000E+00   0.000000E+00   0.000000E+00   0.000000E+00
           213      G       4.679681E-07  -4.531420E-06   0.000000E+00   0.000000E+00   0.000000E+00   0.000000E+00
           214      G       4.914633E-07  -5.136230E-06   0.000000E+00   0.000000E+00   0.000000E+00   0.000000E+00
           215      G       5.136160E-07  -5.769569E-06   0.000000E+00   0.000000E+00   0.000000E+00   0.000000E+00
           216      G       5.344261E-07  -6.429760E-06   0.000000E+00   0.000000E+00   0.000000E+00   0.000000E+00
           217      G       5.538936E-07  -7.115124E-06   0.000000E+00   0.000000E+00   0.000000E+00   0.000000E+00
           218      G       5.720185E-07  -7.823984E-06   0.000000E+00   0.000000E+00   0.000000E+00   0.000000E+00
           219      G       5.888009E-07  -8.554661E-06   0.000000E+00   0.000000E+00   0.000000E+00   0.000000E+00
           220      G       6.042406E-07  -9.305476E-06   0.000000E+00   0.000000E+00   0.000000E+00   0.000000E+00
           221      G       6.183378E-07  -1.007475E-05   0.000000E+00   0.000000E+00   0.000000E+00   0.000000E+00
           222      G       6.310924E-07  -1.086081E-05   0.000000E+00   0.000000E+00   0.000000E+00   0.000000E+00
           223      G       6.425043E-07  -1.166197E-05   0.000000E+00   0.000000E+00   0.000000E+00   0.000000E+00
           224      G       6.525737E-07  -1.247656E-05   0.000000E+00   0.000000E+00   0.000000E+00   0.000000E+00
           225      G       6.613006E-07  -1.330290E-05   0.000000E+00   0.000000E+00   0.000000E+00   0.000000E+00
           226      G       6.686848E-07  -1.413930E-05   0.000000E+00   0.000000E+00   0.000000E+00   0.000000E+00
           227      G       6.747274E-07  -1.498410E-05   0.000000E+00   0.000000E+00   0.000000E+00   0.000000E+00
           228      G       6.794109E-07  -1.583561E-05   0.000000E+00   0.000000E+00   0.000000E+00   0.000000E+00
           229      G       6.828073E-07  -1.669216E-05   0.000000E+00   0.000000E+00   0.000000E+00   0.000000E+00
           230      G       6.850724E-07  -1.755210E-05   0.000000E+00   0.000000E+00   0.000000E+00   0.000000E+00
           231      G       6.856447E-07  -1.841267E-05   0.000000E+00   0.000000E+00   0.000000E+00   0.000000E+00
           232      G       0.000000E+00   0.000000E+00   0.000000E+00   0.000000E+00   0.000000E+00   0.000000E+00
           233      G       6.022422E-08  -3.451172E-08   0.000000E+00   0.000000E+00   0.000000E+00   0.000000E+00
           234      G       1.227743E-07  -1.162976E-07   0.000000E+00   0.000000E+00   0.000000E+00   0.000000E+00
           235      G       1.819513E-07  -2.472794E-07   0.000000E+00   0.000000E+00   0.000000E+00   0.000000E+00
           236      G       2.393814E-07  -4.273286E-07   0.000000E+00   0.000000E+00   0.000000E+00   0.000000E+00
           237      G       2.947583E-07  -6.543303E-07   0.000000E+00   0.000000E+00   0.000000E+00   0.000000E+00
           238      G       3.481268E-07  -9.266498E-07   0.000000E+00   0.000000E+00   0.000000E+00   0.000000E+00
           239      G       3.994807E-07  -1.242601E-06   0.000000E+00   0.000000E+00   0.000000E+00   0.000000E+00
           240      G       4.488208E-07  -1.600509E-06   0.000000E+00   0.000000E+00   0.000000E+00   0.000000E+00
           241      G       4.961469E-07  -1.998694E-06   0.000000E+00   0.000000E+00   0.000000E+00   0.000000E+00
           242      G       5.414592E-07  -2.435478E-06   0.000000E+00   0.000000E+00   0.000000E+00   0.000000E+00
           243      G       5.847577E-07  -2.909184E-06   0.000000E+00   0.000000E+00   0.000000E+00   0.000000E+00
           244      G       6.260422E-07  -3.418132E-06   0.000000E+00   0.000000E+00   0.000000E+00   0.000000E+00
           245      G       6.653129E-07  -3.960646E-06   0.000000E+00   0.000000E+00   0.000000E+00   0.000000E+00
           246      G       7.025697E-07  -4.535045E-06   0.000000E+00   0.000000E+00   0.000000E+00   0.000000E+00
           247      G       7.378126E-07  -5.139653E-06   0.000000E+00   0.000000E+00   0.000000E+00   0.000000E+00
           248      G       7.710416E-07  -5.772791E-06   0.000000E+00   0.000000E+00   0.000000E+00   0.000000E+00
           249      G       8.022567E-07  -6.432781E-06   0.000000E+00   0.000000E+00   0.000000E+00   0.000000E+00
           250      G       8.314580E-07  -7.117944E-06   0.000000E+00   0.000000E+00   0.000000E+00   0.000000E+00
           251      G       8.586454E-07  -7.826602E-06   0.000000E+00   0.000000E+00   0.000000E+00   0.000000E+00
           252      G       8.838189E-07  -8.557077E-06   0.000000E+00   0.000000E+00   0.000000E+00   0.000000E+00
           253      G       9.069785E-07  -9.307692E-06   0.000000E+00   0.000000E+00   0.000000E+00   0.000000E+00
           254      G       9.281243E-07  -1.007677E-05   0.000000E+00   0.000000E+00   0.000000E+00   0.000000E+00
           255      G       9.472561E-07  -1.086262E-05   0.000000E+00   0.000000E+00   0.000000E+00   0.000000E+00
           256      G       9.643741E-07  -1.166358E-05   0.000000E+00   0.000000E+00   0.000000E+00   0.000000E+00
           257      G       9.794782E-07  -1.247797E-05   0.000000E+00   0.000000E+00   0.000000E+00   0.000000E+00
           258      G       9.925684E-07  -1.330411E-05   0.000000E+00   0.000000E+00   0.000000E+00   0.000000E+00
           259      G       1.003645E-06  -1.414031E-05   0.000000E+00   0.000000E+00   0.000000E+00   0.000000E+00
           260      G       1.012707E-06  -1.498490E-05   0.000000E+00   0.000000E+00   0.000000E+00   0.000000E+00
           261      G       1.019753E-06  -1.583621E-05   0.000000E+00   0.000000E+00   0.000000E+00   0.000000E+00
           262      G       1.024800E-06  -1.669261E-05   0.000000E+00   0.000000E+00   0.000000E+00   0.000000E+00
           263      G       1.027790E-06  -1.755229E-05   0.000000E+00   0.000000E+00   0.000000E+00   0.000000E+00
           264      G       1.028670E-06  -1.841227E-05   0.000000E+00   0.000000E+00   0.000000E+00   0.000000E+00
           265      G       0.000000E+00   0.000000E+00   0.000000E+00   0.000000E+00   0.000000E+00   0.000000E+00
           266      G       8.422156E-08  -4.484427E-08   0.000000E+00   0.000000E+00   0.000000E+00   0.000000E+00
           267      G       1.644930E-07  -1.244558E-07   0.000000E+00   0.000000E+00   0.000000E+00   0.000000E+00
           268      G       2.437682E-07  -2.555184E-07   0.000000E+00   0.000000E+00   0.000000E+00   0.000000E+00
           269      G       3.203228E-07  -4.352103E-07   0.000000E+00   0.000000E+00   0.000000E+00   0.000000E+00
           270      G       3.941653E-07  -6.619454E-07   0.000000E+00   0.000000E+00   0.000000E+00   0.000000E+00
           271      G       4.653220E-07  -9.339797E-07   0.000000E+00   0.000000E+00   0.000000E+00   0.000000E+00
           272      G       5.337937E-07  -1.249650E-06   0.000000E+00   0.000000E+00   0.000000E+00   0.000000E+00
           273      G       5.995805E-07  -1.607275E-06   0.000000E+00   0.000000E+00   0.000000E+00   0.000000E+00
           274      G       6.626821E-07  -2.005178E-06   0.000000E+00   0.000000E+00   0.000000E+00   0.000000E+00
           275      G       7.230985E-07  -2.441681E-06   0.000000E+00   0.000000E+00   0.000000E+00   0.000000E+00
           276      G       7.808297E-07  -2.915105E-06   0.000000E+00   0.000000E+00   0.000000E+00   0.000000E+00
           277      G       8.358758E-07  -3.423771E-06   0.000000E+00   0.000000E+00   0.000000E+00   0.000000E+00
           278      G       8.882367E-07  -3.966003E-06   0.000000E+00   0.000000E+00   0.000000E+00   0.000000E+00
           279      G       9.379124E-07  -4.540120E-06   0.000000E+00   0.000000E+00   0.000000E+00   0.000000E+00
           280      G       9.849029E-07  -5.144446E-06   0.000000E+00   0.000000E+00   0.000000E+00   0.000000E+00
           281      G       1.029208E-06  -5.777302E-06   0.000000E+00   0.000000E+00   0.000000E+00   0.000000E+00
           282      G       1.070828E-06  -6.437010E-06   0.000000E+00   0.000000E+00   0.000000E+00   0.000000E+00
           283      G       1.109764E-06  -7.121891E-06   0.000000E+00   0.000000E+00   0.000000E+00   0.000000E+00
           284      G       1.146013E-06  -7.830267E-06   0.000000E+00   0.000000E+00   0.000000E+00   0.000000E+00
           285      G       1.179578E-06  -8.560461E-06   0.000000E+00   0.000000E+00   0.000000E+00   0.000000E+00
           286      G       1.210458E-06  -9.310793E-06   0.000000E+00   0.000000E+00   0.000000E+00   0.000000E+00
           287      G       1.238652E-06  -1.007959E-05   0.000000E+00   0.000000E+00   0.000000E+00   0.000000E+00
           288      G       1.264161E-06  -1.086516E-05   0.000000E+00   0.000000E+00   0.000000E+00   0.000000E+00
           289      G       1.286985E-06  -1.166584E-05   0.000000E+00   0.000000E+00   0.000000E+00   0.000000E+00
           290      G       1.307124E-06  -1.247995E-05   0.000000E+00   0.000000E+00   0.000000E+00   0.000000E+00
           291      G       1.324577E-06  -1.330580E-05   0.000000E+00   0.000000E+00   0.000000E+00   0.000000E+00
           292      G       1.339346E-06  -1.414172E-05   0.000000E+00   0.000000E+00   0.000000E+00   0.000000E+00
           293      G       1.351428E-06  -1.498603E-05   0.000000E+00   0.000000E+00   0.000000E+00   0.000000E+00
           294      G       1.360840E-06  -1.583706E-05   0.000000E+00   0.000000E+00   0.000000E+00   0.000000E+00
           295      G       1.367550E-06  -1.669319E-05   0.000000E+00   0.000000E+00   0.000000E+00   0.000000E+00
           296      G       1.371238E-06  -1.755251E-05   0.000000E+00   0.000000E+00   0.000000E+00   0.000000E+00
           297      G       1.372246E-06  -1.841224E-05   0.000000E+00   0.000000E+00   0.000000E+00   0.000000E+00

1                                                            S T R E S S E S   I N   T R I A N G U L A R   E L E M E N T S    ( T R I A 3 )
                                                                                                                                                          PAGE    3
0
  ELEMENT      FIBER               STRESSES IN ELEMENT COORD SYSTEM
    ID.        DISTANCE           NORMAL-X       NORMAL-Y      SHEAR-XY
       1  Z1 = 5.000E-01    -5.047250E+05  -6.462407E+04  -2.502246E+04
       2  Z1 = 5.000E-01    -4.761358E+05   1.248220E+04   3.738240E+03
       3  Z1 = 5.000E-01    -4.658002E+05  -2.002710E+03  -4.142674E+03
       4  Z1 = 5.000E-01    -4.500703E+05   3.930933E+02  -3.677160E+03
       5  Z1 = 5.000E-01    -4.342035E+05  -8.774450E+01  -3.703538E+03
       6  Z1 = 5.000E-01    -4.183994E+05   1.832525E+01  -3.681229E+03
       7  Z1 = 5.000E-01    -4.026151E+05  -3.984754E+00  -3.684261E+03
       8  Z1 = 5.000E-01    -3.868261E+05   9.732009E-01  -3.684524E+03
       9  Z1 = 5.000E-01    -3.710373E+05  -2.384516E-01  -3.684484E+03
      10  Z1 = 5.000E-01    -3.552485E+05   5.564844E-02  -3.684468E+03
      11  Z1 = 5.000E-01    -3.394597E+05  -1.293542E-02  -3.684472E+03
      12  Z1 = 5.000E-01    -3.236708E+05   3.076309E-03  -3.684471E+03
      13  Z1 = 5.000E-01    -3.078820E+05  -7.387673E-04  -3.684471E+03
      14  Z1 = 5.000E-01    -2.920932E+05   1.787291E-04  -3.684471E+03
      15  Z1 = 5.000E-01    -2.763044E+05  -4.410338E-05  -3.684471E+03
      16  Z1 = 5.000E-01    -2.605156E+05   1.174455E-05  -3.684471E+03
      17  Z1 = 5.000E-01    -2.447267E+05  -5.502254E-06  -3.684471E+03
      18  Z1 = 5.000E-01    -2.289379E+05   1.176560E-05  -3.684471E+03
      19  Z1 = 5.000E-01    -2.131491E+05  -4.321955E-05  -3.684471E+03
      20  Z1 = 5.000E-01    -1.973603E+05   1.638690E-04  -3.684471E+03
      21  Z1 = 5.000E-01    -1.815714E+05  -6.196263E-04  -3.684471E+03
      22  Z1 = 5.000E-01    -1.657826E+05   2.235378E-03  -3.684471E+03
      23  Z1 = 5.000E-01    -1.499938E+05  -7.175293E-03  -3.684474E+03
      24  Z1 = 5.000E-01    -1.342050E+05   1.977851E-02  -3.684458E+03
      25  Z1 = 5.000E-01    -1.184162E+05  -4.776921E-02  -3.684508E+03
      26  Z1 = 5.000E-01    -1.026272E+05   4.793803E-02  -3.684295E+03
      27  Z1 = 5.000E-01    -8.683798E+04   5.977957E-01  -3.685761E+03
      28  Z1 = 5.000E-01    -7.104818E+04  -3.087629E+00  -3.683939E+03
      29  Z1 = 5.000E-01    -5.530089E+04  -7.591195E+00  -3.641298E+03
      30  Z1 = 5.000E-01    -3.947273E+04   9.291279E+01  -3.792463E+03
      31  Z1 = 5.000E-01    -2.245724E+04  -5.867724E+01  -4.528429E+03
      32  Z1 = 5.000E-01    -6.435930E+03  -3.030140E+02  -2.775090E+03
      33  Z1 = 5.000E-01    -3.493699E+05  -4.963377E+04  -1.318483E+04
      34  Z1 = 5.000E-01    -3.498518E+05   2.995571E+03  -9.792995E+03
      35  Z1 = 5.000E-01    -3.320211E+05   1.798707E+03  -7.698964E+03
      36  Z1 = 5.000E-01    -3.214505E+05  -3.685294E+02  -9.355497E+03
      37  Z1 = 5.000E-01    -3.101191E+05   5.298151E+01  -9.081133E+03
      38  Z1 = 5.000E-01    -2.988647E+05  -1.731686E+01  -9.100896E+03
      39  Z1 = 5.000E-01    -2.875816E+05   4.800687E+00  -9.096512E+03
      40  Z1 = 5.000E-01    -2.763044E+05  -8.802323E-01  -9.097991E+03
      41  Z1 = 5.000E-01    -2.650266E+05   1.649981E-01  -9.097760E+03
      42  Z1 = 5.000E-01    -2.537489E+05  -4.247835E-02  -9.097787E+03
      43  Z1 = 5.000E-01    -2.424712E+05   1.102706E-02  -9.097780E+03
      44  Z1 = 5.000E-01    -2.311935E+05  -2.635332E-03  -9.097782E+03
      45  Z1 = 5.000E-01    -2.199157E+05   6.524031E-04  -9.097782E+03
      46  Z1 = 5.000E-01    -2.086380E+05  -1.691306E-04  -9.097782E+03
      47  Z1 = 5.000E-01    -1.973603E+05   4.294755E-05  -9.097782E+03
      48  Z1 = 5.000E-01    -1.860825E+05  -1.137528E-05  -9.097782E+03
      49  Z1 = 5.000E-01    -1.748048E+05   5.047135E-06  -9.097782E+03
      50  Z1 = 5.000E-01    -1.635271E+05  -1.043492E-05  -9.097782E+03
      51  Z1 = 5.000E-01    -1.522493E+05   3.810906E-05  -9.097782E+03
      52  Z1 = 5.000E-01    -1.409716E+05  -1.469417E-04  -9.097782E+03
      53  Z1 = 5.000E-01    -1.296939E+05   5.348716E-04  -9.097781E+03
      54  Z1 = 5.000E-01    -1.184162E+05  -1.951316E-03  -9.097783E+03
      55  Z1 = 5.000E-01    -1.071384E+05   8.860902E-03  -9.097778E+03
      56  Z1 = 5.000E-01    -9.586071E+04  -4.125369E-02  -9.097799E+03
      57  Z1 = 5.000E-01    -8.458291E+04   1.381190E-01  -9.097674E+03
      58  Z1 = 5.000E-01    -7.330543E+04  -4.605778E-01  -9.098222E+03
      59  Z1 = 5.000E-01    -6.202697E+04   3.168190E+00  -9.097327E+03
      60  Z1 = 5.000E-01    -5.075681E+04  -1.299678E+01  -9.097866E+03
      61  Z1 = 5.000E-01    -3.942164E+04  -3.523803E+01  -9.065830E+03
      62  Z1 = 5.000E-01    -2.824724E+04   4.008854E+02  -9.184452E+03
      63  Z1 = 5.000E-01    -1.760408E+04   1.783887E+02  -1.013666E+04
      64  Z1 = 5.000E-01    -5.930561E+03  -3.500018E+03  -8.004206E+03
      65  Z1 = 5.000E-01    -2.070041E+05  -3.155007E+04  -3.373834E+03
      66  Z1 = 5.000E-01    -2.108537E+05  -2.674022E+02  -1.585500E+04
      67  Z1 = 5.000E-01    -2.004235E+05   1.717316E+03  -1.266101E+04
      68  Z1 = 5.000E-01    -1.925801E+05  -2.562706E+01  -1.260752E+04
      69  Z1 = 5.000E-01    -1.860922E+05  -6.777024E+01  -1.273272E+04
      70  Z1 = 5.000E-01    -1.793164E+05   1.112553E+01  -1.269992E+04
      71  Z1 = 5.000E-01    -1.725503E+05  -1.650368E+00  -1.270844E+04
      72  Z1 = 5.000E-01    -1.657823E+05   6.518277E-01  -1.270630E+04
      73  Z1 = 5.000E-01    -1.590160E+05  -1.931013E-01  -1.270671E+04
      74  Z1 = 5.000E-01    -1.522493E+05   4.179815E-02  -1.270665E+04
      75  Z1 = 5.000E-01    -1.454827E+05  -1.001012E-02  -1.270666E+04
      76  Z1 = 5.000E-01    -1.387161E+05   2.807373E-03  -1.270665E+04
      77  Z1 = 5.000E-01    -1.319494E+05  -7.488174E-04  -1.270666E+04
      78  Z1 = 5.000E-01    -1.251828E+05   1.884139E-04  -1.270666E+04
      79  Z1 = 5.000E-01    -1.184162E+05  -4.806123E-05  -1.270666E+04
      80  Z1 = 5.000E-01    -1.116495E+05   1.300167E-05  -1.270666E+04
      81  Z1 = 5.000E-01    -1.048829E+05  -5.918548E-06  -1.270666E+04
      82  Z1 = 5.000E-01    -9.811625E+04   1.236849E-05  -1.270666E+04
      83  Z1 = 5.000E-01    -9.134961E+04  -4.546702E-05  -1.270666E+04
      84  Z1 = 5.000E-01    -8.458297E+04   1.765507E-04  -1.270666E+04
      85  Z1 = 5.000E-01    -7.781633E+04  -7.528929E-04  -1.270666E+04
      86  Z1 = 5.000E-01    -7.104970E+04   3.323695E-03  -1.270665E+04
      87  Z1 = 5.000E-01    -6.428306E+04  -1.302471E-02  -1.270666E+04
      88  Z1 = 5.000E-01    -5.751641E+04   5.096463E-02  -1.270665E+04
      89  Z1 = 5.000E-01    -5.074979E+04  -2.701684E-01  -1.270671E+04
      90  Z1 = 5.000E-01    -4.398296E+04   1.315970E+00  -1.270641E+04
      91  Z1 = 5.000E-01    -3.721900E+04  -3.210973E+00  -1.270785E+04
      92  Z1 = 5.000E-01    -3.044272E+04   4.085157E+00  -1.269742E+04
      93  Z1 = 5.000E-01    -2.366376E+04  -7.550994E+01  -1.276820E+04
      94  Z1 = 5.000E-01    -1.681697E+04   4.419876E+02  -1.248710E+04
      95  Z1 = 5.000E-01    -1.215567E+04   1.183609E+03  -1.298169E+04
      96  Z1 = 5.000E-01    -5.278894E+03  -9.009973E+03  -1.259786E+04
      97  Z1 = 5.000E-01    -6.865504E+04  -1.080803E+04   1.581123E+03
      98  Z1 = 5.000E-01    -7.031829E+04  -4.231057E+02  -1.809025E+04
      99  Z1 = 5.000E-01    -6.702006E+04   6.421208E+02  -1.549735E+04
     100  Z1 = 5.000E-01    -6.418543E+04   3.980507E+01  -1.435982E+04
     101  Z1 = 5.000E-01    -6.201362E+04  -3.478680E+01  -1.448261E+04
     102  Z1 = 5.000E-01    -5.977795E+04   2.305109E+00  -1.451796E+04
     103  Z1 = 5.000E-01    -5.751537E+04   8.888436E-01  -1.451078E+04
     104  Z1 = 5.000E-01    -5.526115E+04  -3.294123E-01  -1.451119E+04
     105  Z1 = 5.000E-01    -5.300525E+04   1.137144E-01  -1.451105E+04
     106  Z1 = 5.000E-01    -5.074980E+04  -3.955513E-02  -1.451110E+04
     107  Z1 = 5.000E-01    -4.849423E+04   1.143667E-02  -1.451109E+04
     108  Z1 = 5.000E-01    -4.623869E+04  -2.947702E-03  -1.451109E+04
     109  Z1 = 5.000E-01    -4.398315E+04   7.564341E-04  -1.451109E+04
     110  Z1 = 5.000E-01    -4.172760E+04  -1.962254E-04  -1.451109E+04
     111  Z1 = 5.000E-01    -3.947205E+04   5.028392E-05  -1.451109E+04
     112  Z1 = 5.000E-01    -3.721651E+04  -1.334334E-05  -1.451109E+04
     113  Z1 = 5.000E-01    -3.496096E+04   6.089567E-06  -1.451109E+04
     114  Z1 = 5.000E-01    -3.270542E+04  -1.275490E-05  -1.451109E+04
     115  Z1 = 5.000E-01    -3.044987E+04   4.961968E-05  -1.451109E+04
     116  Z1 = 5.000E-01    -2.819432E+04  -2.084218E-04  -1.451109E+04
     117  Z1 = 5.000E-01    -2.593878E+04   8.596795E-04  -1.451109E+04
     118  Z1 = 5.000E-01    -2.368323E+04  -3.496453E-03  -1.451109E+04
     119  Z1 = 5.000E-01    -2.142768E+04   1.494602E-02  -1.451109E+04
     120  Z1 = 5.000E-01    -1.917215E+04  -6.400723E-02  -1.451110E+04
     121  Z1 = 5.000E-01    -1.691652E+04   2.425164E-01  -1.451111E+04
     122  Z1 = 5.000E-01    -1.466126E+04  -9.473446E-01  -1.451107E+04
     123  Z1 = 5.000E-01    -1.240567E+04   5.317839E+00  -1.450906E+04
     124  Z1 = 5.000E-01    -1.014975E+04  -2.949647E+01  -1.452077E+04
     125  Z1 = 5.000E-01    -7.870317E+03   1.134688E+02  -1.452467E+04
     126  Z1 = 5.000E-01    -5.680686E+03  -4.766815E+02  -1.453598E+04
     127  Z1 = 5.000E-01    -3.842217E+03   3.525663E+03  -1.235322E+04
     128  Z1 = 5.000E-01    -5.503931E+03  -1.616986E+04  -1.662284E+04
     129  Z1 = 5.000E-01     6.865504E+04   1.080803E+04   1.581123E+03
     130  Z1 = 5.000E-01     7.031829E+04   4.231057E+02  -1.809025E+04
     131  Z1 = 5.000E-01     6.702006E+04  -6.421208E+02  -1.549735E+04
     132  Z1 = 5.000E-01     6.418543E+04  -3.980507E+01  -1.435982E+04
     133  Z1 = 5.000E-01     6.201362E+04   3.478680E+01  -1.448261E+04
     134  Z1 = 5.000E-01     5.977795E+04  -2.305109E+00  -1.451796E+04
     135  Z1 = 5.000E-01     5.751537E+04  -8.888436E-01  -1.451078E+04
     136  Z1 = 5.000E-01     5.526115E+04   3.294123E-01  -1.451119E+04
     137  Z1 = 5.000E-01     5.300525E+04  -1.137145E-01  -1.451105E+04
     138  Z1 = 5.000E-01     5.074980E+04   3.955511E-02  -1.451110E+04
     139  Z1 = 5.000E-01     4.849423E+04  -1.143666E-02  -1.451109E+04
     140  Z1 = 5.000E-01     4.623869E+04   2.947720E-03  -1.451109E+04
     141  Z1 = 5.000E-01     4.398315E+04  -7.564869E-04  -1.451109E+04
     142  Z1 = 5.000E-01     4.172760E+04   1.961393E-04  -1.451109E+04
     143  Z1 = 5.000E-01     3.947205E+04  -5.024213E-05  -1.451109E+04
     144  Z1 = 5.000E-01     3.721651E+04   1.345250E-05  -1.451109E+04
     145  Z1 = 5.000E-01     3.496096E+04  -6.163262E-06  -1.451109E+04
     146  Z1 = 5.000E-01     3.270542E+04   1.265676E-05  -1.451109E+04
     147  Z1 = 5.000E-01     3.044987E+04  -4.945127E-05  -1.451109E+04
     148  Z1 = 5.000E-01     2.819432E+04   2.086114E-04  -1.451109E+04
     149  Z1 = 5.000E-01     2.593878E+04  -8.596485E-04  -1.451109E+04
     150  Z1 = 5.000E-01     2.368323E+04   3.496427E-03  -1.451109E+04
     151  Z1 = 5.000E-01     2.142768E+04  -1.494615E-02  -1.451109E+04
     152  Z1 = 5.000E-01     1.917215E+04   6.400715E-02  -1.451110E+04
     153  Z1 = 5.000E-01     1.691652E+04  -2.425165E-01  -1.451111E+04
     154  Z1 = 5.000E-01     1.466126E+04   9.473448E-01  -1.451107E+04
     155  Z1 = 5.000E-01     1.240567E+04  -5.317839E+00  -1.450906E+04
     156  Z1 = 5.000E-01     1.014975E+04   2.949647E+01  -1.452077E+04
     157  Z1 = 5.000E-01     7.870317E+03  -1.134688E+02  -1.452467E+04
     158  Z1 = 5.000E-01     5.680686E+03   4.766815E+02  -1.453598E+04
     159  Z1 = 5.000E-01     3.842217E+03  -3.525663E+03  -1.235322E+04
     160  Z1 = 5.000E-01     5.503931E+03   1.616986E+04  -1.662284E+04
     161  Z1 = 5.000E-01     2.070041E+05   3.155007E+04  -3.373834E+03
     162  Z1 = 5.000E-01     2.108537E+05   2.674022E+02  -1.585500E+04
     163  Z1 = 5.000E-01     2.004235E+05  -1.717316E+03  -1.266101E+04
     164  Z1 = 5.000E-01     1.925801E+05   2.562706E+01  -1.260752E+04
     165  Z1 = 5.000E-01     1.860922E+05   6.777024E+01  -1.273272E+04
     166  Z1 = 5.000E-01     1.793164E+05  -1.112553E+01  -1.269992E+04
     167  Z1 = 5.000E-01     1.725503E+05   1.650368E+00  -1.270844E+04
     168  Z1 = 5.000E-01     1.657823E+05  -6.518277E-01  -1.270630E+04
     169  Z1 = 5.000E-01     1.590160E+05   1.931013E-01  -1.270671E+04
     170  Z1 = 5.000E-01     1.522493E+05  -4.179812E-02  -1.270665E+04
     171  Z1 = 5.000E-01     1.454827E+05   1.001012E-02  -1.270666E+04
     172  Z1 = 5.000E-01     1.387161E+05  -2.807373E-03  -1.270665E+04
     173  Z1 = 5.000E-01     1.319494E+05   7.488700E-04  -1.270666E+04
     174  Z1 = 5.000E-01     1.251828E+05  -1.883192E-04  -1.270666E+04
     175  Z1 = 5.000E-01     1.184162E+05   4.802267E-05  -1.270666E+04
     176  Z1 = 5.000E-01     1.116495E+05  -1.309132E-05  -1.270666E+04
     177  Z1 = 5.000E-01     1.048829E+05   5.986585E-06  -1.270666E+04
     178  Z1 = 5.000E-01     9.811625E+04  -1.226893E-05  -1.270666E+04
     179  Z1 = 5.000E-01     9.134961E+04   4.530052E-05  -1.270666E+04
     180  Z1 = 5.000E-01     8.458297E+04  -1.768991E-04  -1.270666E+04
     181  Z1 = 5.000E-01     7.781633E+04   7.526380E-04  -1.270666E+04
     182  Z1 = 5.000E-01     7.104970E+04  -3.323735E-03  -1.270665E+04
     183  Z1 = 5.000E-01     6.428306E+04   1.302466E-02  -1.270666E+04
     184  Z1 = 5.000E-01     5.751641E+04  -5.096464E-02  -1.270665E+04
     185  Z1 = 5.000E-01     5.074979E+04   2.701687E-01  -1.270671E+04
     186  Z1 = 5.000E-01     4.398296E+04  -1.315970E+00  -1.270641E+04
     187  Z1 = 5.000E-01     3.721900E+04   3.210973E+00  -1.270785E+04
     188  Z1 = 5.000E-01     3.044272E+04  -4.085157E+00  -1.269742E+04
     189  Z1 = 5.000E-01     2.366376E+04   7.550994E+01  -1.276820E+04
     190  Z1 = 5.000E-01     1.681697E+04  -4.419876E+02  -1.248710E+04
     191  Z1 = 5.000E-01     1.215567E+04  -1.183609E+03  -1.298169E+04
     192  Z1 = 5.000E-01     5.278894E+03   9.009973E+03  -1.259786E+04
     193  Z1 = 5.000E-01     3.493699E+05   4.963377E+04  -1.318483E+04
     194  Z1 = 5.000E-01     3.498518E+05  -2.995571E+03  -9.792995E+03
     195  Z1 = 5.000E-01     3.320211E+05  -1.798707E+03  -7.698964E+03
     196  Z1 = 5.000E-01     3.214505E+05   3.685294E+02  -9.355497E+03
     197  Z1 = 5.000E-01     3.101191E+05  -5.298151E+01  -9.081133E+03
     198  Z1 = 5.000E-01     2.988647E+05   1.731686E+01  -9.100896E+03
     199  Z1 = 5.000E-01     2.875816E+05  -4.800687E+00  -9.096512E+03
     200  Z1 = 5.000E-01     2.763044E+05   8.802323E-01  -9.097991E+03
     201  Z1 = 5.000E-01     2.650266E+05  -1.649981E-01  -9.097760E+03
     202  Z1 = 5.000E-01     2.537489E+05   4.247835E-02  -9.097787E+03
     203  Z1 = 5.000E-01     2.424712E+05  -1.102704E-02  -9.097780E+03
     204  Z1 = 5.000E-01     2.311935E+05   2.635340E-03  -9.097782E+03
     205  Z1 = 5.000E-01     2.199157E+05  -6.524185E-04  -9.097782E+03
     206  Z1 = 5.000E-01     2.086380E+05   1.690848E-04  -9.097782E+03
     207  Z1 = 5.000E-01     1.973603E+05  -4.300982E-05  -9.097782E+03
     208  Z1 = 5.000E-01     1.860825E+05   1.127383E-05  -9.097782E+03
     209  Z1 = 5.000E-01     1.748048E+05  -5.212576E-06  -9.097782E+03
     210  Z1 = 5.000E-01     1.635271E+05   1.036991E-05  -9.097782E+03
     211  Z1 = 5.000E-01     1.522493E+05  -3.783724E-05  -9.097782E+03
     212  Z1 = 5.000E-01     1.409716E+05   1.472214E-04  -9.097782E+03
     213  Z1 = 5.000E-01     1.296939E+05  -5.346003E-04  -9.097781E+03
     214  Z1 = 5.000E-01     1.184162E+05   1.951376E-03  -9.097783E+03
     215  Z1 = 5.000E-01     1.071384E+05  -8.860998E-03  -9.097778E+03
     216  Z1 = 5.000E-01     9.586071E+04   4.125370E-02  -9.097799E+03
     217  Z1 = 5.000E-01     8.458291E+04  -1.381191E-01  -9.097674E+03
     218  Z1 = 5.000E-01     7.330543E+04   4.605780E-01  -9.098222E+03
     219  Z1 = 5.000E-01     6.202697E+04  -3.168190E+00  -9.097327E+03
     220  Z1 = 5.000E-01     5.075681E+04   1.299678E+01  -9.097866E+03
     221  Z1 = 5.000E-01     3.942164E+04   3.523803E+01  -9.065830E+03
     222  Z1 = 5.000E-01     2.824724E+04  -4.008854E+02  -9.184452E+03
     223  Z1 = 5.000E-01     1.760408E+04  -1.783887E+02  -1.013666E+04
     224  Z1 = 5.000E-01     5.930561E+03   3.500018E+03  -8.004206E+03
     225  Z1 = 5.000E-01     5.047250E+05   6.462407E+04  -2.502246E+04
     226  Z1 = 5.000E-01     4.761358E+05  -1.248220E+04   3.738240E+03
     227  Z1 = 5.000E-01     4.658002E+05   2.002710E+03  -4.142674E+03
     228  Z1 = 5.000E-01     4.500703E+05  -3.930933E+02  -3.677160E+03
     229  Z1 = 5.000E-01     4.342035E+05   8.774450E+01  -3.703538E+03
     230  Z1 = 5.000E-01     4.183994E+05  -1.832525E+01  -3.681229E+03
     231  Z1 = 5.000E-01     4.026151E+05   3.984754E+00  -3.684261E+03
     232  Z1 = 5.000E-01     3.868261E+05  -9.732009E-01  -3.684524E+03
     233  Z1 = 5.000E-01     3.710373E+05   2.384517E-01  -3.684484E+03
     234  Z1 = 5.000E-01     3.552485E+05  -5.564839E-02  -3.684468E+03
     235  Z1 = 5.000E-01     3.394597E+05   1.293542E-02  -3.684472E+03
     236  Z1 = 5.000E-01     3.236708E+05  -3.076275E-03  -3.684471E+03
     237  Z1 = 5.000E-01     3.078820E+05   7.387202E-04  -3.684471E+03
     238  Z1 = 5.000E-01     2.920932E+05  -1.788561E-04  -3.684471E+03
     239  Z1 = 5.000E-01     2.763044E+05   4.403164E-05  -3.684471E+03
     240  Z1 = 5.000E-01     2.605156E+05  -1.181627E-05  -3.684471E+03
     241  Z1 = 5.000E-01     2.447267E+05   5.523791E-06  -3.684471E+03
     242  Z1 = 5.000E-01     2.289379E+05  -1.175966E-05  -3.684471E+03
     243  Z1 = 5.000E-01     2.131491E+05   4.296059E-05  -3.684471E+03
     244  Z1 = 5.000E-01     1.973603E+05  -1.641402E-04  -3.684471E+03
     245  Z1 = 5.000E-01     1.815714E+05   6.194595E-04  -3.684471E+03
     246  Z1 = 5.000E-01     1.657826E+05  -2.235255E-03  -3.684471E+03
     247  Z1 = 5.000E-01     1.499938E+05   7.175571E-03  -3.684474E+03
     248  Z1 = 5.000E-01     1.342050E+05  -1.977852E-02  -3.684458E+03
     249  Z1 = 5.000E-01     1.184162E+05   4.776923E-02  -3.684508E+03
     250  Z1 = 5.000E-01     1.026272E+05  -4.793807E-02  -3.684295E+03
     251  Z1 = 5.000E-01     8.683798E+04  -5.977960E-01  -3.685761E+03
     252  Z1 = 5.000E-01     7.104818E+04   3.087629E+00  -3.683939E+03
     253  Z1 = 5.000E-01     5.530089E+04   7.591195E+00  -3.641298E+03
     254  Z1 = 5.000E-01     3.947273E+04  -9.291279E+01  -3.792463E+03
     255  Z1 = 5.000E-01     2.245724E+04   5.867724E+01  -4.528429E+03
     256  Z1 = 5.000E-01     6.435930E+03   3.030140E+02  -2.775090E+03

1                                                            F O R C E S   A N D   M O M E N T S   I N   S P C   F O R C E S
                                                                                                                                                          PAGE    4
0
      POINT ID.   TYPE          T1             T2             T3             R1             R2             R3
             1      G       0.000000E+00   0.000000E+00   0.000000E+00   0.000000E+00   0.000000E+00   0.000000E+00
            34      G       0.000000E+00   0.000000E+00   0.000000E+00   0.000000E+00   0.000000E+00   0.000000E+00
            67      G       0.000000E+00   0.000000E+00   0.000000E+00   0.000000E+00   0.000000E+00   0.000000E+00
           100      G       0.000000E+00   0.000000E+00   0.000000E+00   0.000000E+00   0.000000E+00   0.000000E+00
           133      G       0.000000E+00   0.000000E+00   0.000000E+00   0.000000E+00   0.000000E+00   0.000000E+00
           166      G       0.000000E+00   0.000000E+00   0.000000E+00   0.000000E+00   0.000000E+00   0.000000E+00
           199      G       0.000000E+00   0.000000E+00   0.000000E+00   0.000000E+00   0.000000E+00   0.000000E+00
           232      G       0.000000E+00   0.000000E+00   0.000000E+00   0.000000E+00   0.000000E+00   0.000000E+00
           265      G       0.000000E+00   0.000000E+00   0.000000E+00   0.000000E+00   0.000000E+00   0.000000E+00

1                                         * * * E N D   O F   J O B * * *
