1
                                              N A S T R A N    F I L E    A N D    S Y S T E M    P A R A M E T E R    E C H O
                                                                                                                                                          PAGE    1


0                                                               * * * * * * * * * * * * * * * *
                                                                 *                             *
                                                                 *        FEM4C SOLUTION      *
                                                                 *                             *
                                                                 * * * * * * * * * * * * * * * *


0SOLUTION SUMMARY:
     PROBLEM TITLE........ FEM4C HIGH PERFORMANCE FINITE ELEMENT ANALYSIS
     SOLUTION TYPE........ STATIC ANALYSIS (SOL 101)
     ANALYSIS DATE........ Sat Oct 11 01:41:19 2025
     PROBLEM SIZE......... 297 NODES, 512 ELEMENTS, 594 DOF

1                                                                          D I S P L A C E M E N T   V E C T O R
                                                                                                                                                          PAGE    2
0
      POINT ID.   TYPE          T1             T2             T3             R1             R2             R3
             1      G       0.000000E+00   0.000000E+00   0.000000E+00   0.000000E+00   0.000000E+00   0.000000E+00
             2      G      -7.627877E-08  -3.838880E-08   0.000000E+00   0.000000E+00   0.000000E+00   0.000000E+00
             3      G      -1.486820E-07  -1.127383E-07   0.000000E+00   0.000000E+00   0.000000E+00   0.000000E+00
             4      G      -2.198229E-07  -2.311771E-07   0.000000E+00   0.000000E+00   0.000000E+00   0.000000E+00
             5      G      -2.889617E-07  -3.934769E-07   0.000000E+00   0.000000E+00   0.000000E+00   0.000000E+00
             6      G      -3.557822E-07  -5.983032E-07   0.000000E+00   0.000000E+00   0.000000E+00   0.000000E+00
             7      G      -4.201932E-07  -8.441425E-07   0.000000E+00   0.000000E+00   0.000000E+00   0.000000E+00
             8      G      -4.821752E-07  -1.129465E-06   0.000000E+00   0.000000E+00   0.000000E+00   0.000000E+00
             9      G      -5.417262E-07  -1.452748E-06   0.000000E+00   0.000000E+00   0.000000E+00   0.000000E+00
            10      G      -5.988470E-07  -1.812470E-06   0.000000E+00   0.000000E+00   0.000000E+00   0.000000E+00
            11      G      -6.535383E-07  -2.207112E-06   0.000000E+00   0.000000E+00   0.000000E+00   0.000000E+00
            12      G      -7.058001E-07  -2.635157E-06   0.000000E+00   0.000000E+00   0.000000E+00   0.000000E+00
            13      G      -7.556327E-07  -3.095086E-06   0.000000E+00   0.000000E+00   0.000000E+00   0.000000E+00
            14      G      -8.030360E-07  -3.585381E-06   0.000000E+00   0.000000E+00   0.000000E+00   0.000000E+00
            15      G      -8.480100E-07  -4.104524E-06   0.000000E+00   0.000000E+00   0.000000E+00   0.000000E+00
            16      G      -8.905548E-07  -4.650996E-06   0.000000E+00   0.000000E+00   0.000000E+00   0.000000E+00
            17      G      -9.306703E-07  -5.223279E-06   0.000000E+00   0.000000E+00   0.000000E+00   0.000000E+00
            18      G      -9.683566E-07  -5.819854E-06   0.000000E+00   0.000000E+00   0.000000E+00   0.000000E+00
            19      G      -1.003614E-06  -6.439204E-06   0.000000E+00   0.000000E+00   0.000000E+00   0.000000E+00
            20      G      -1.036441E-06  -7.079811E-06   0.000000E+00   0.000000E+00   0.000000E+00   0.000000E+00
            21      G      -1.066840E-06  -7.740155E-06   0.000000E+00   0.000000E+00   0.000000E+00   0.000000E+00
            22      G      -1.094809E-06  -8.418718E-06   0.000000E+00   0.000000E+00   0.000000E+00   0.000000E+00
            23      G      -1.120349E-06  -9.113983E-06   0.000000E+00   0.000000E+00   0.000000E+00   0.000000E+00
            24      G      -1.143459E-06  -9.824430E-06   0.000000E+00   0.000000E+00   0.000000E+00   0.000000E+00
            25      G      -1.164141E-06  -1.054854E-05   0.000000E+00   0.000000E+00   0.000000E+00   0.000000E+00
            26      G      -1.182393E-06  -1.128480E-05   0.000000E+00   0.000000E+00   0.000000E+00   0.000000E+00
            27      G      -1.198215E-06  -1.203169E-05   0.000000E+00   0.000000E+00   0.000000E+00   0.000000E+00
            28      G      -1.211609E-06  -1.278768E-05   0.000000E+00   0.000000E+00   0.000000E+00   0.000000E+00
            29      G      -1.222574E-06  -1.355127E-05   0.000000E+00   0.000000E+00   0.000000E+00   0.000000E+00
            30      G      -1.231110E-06  -1.432094E-05   0.000000E+00   0.000000E+00   0.000000E+00   0.000000E+00
            31      G      -1.237180E-06  -1.509517E-05   0.000000E+00   0.000000E+00   0.000000E+00   0.000000E+00
            32      G      -1.240660E-06  -1.587226E-05   0.000000E+00   0.000000E+00   0.000000E+00   0.000000E+00
            33      G      -1.241647E-06  -1.665026E-05   0.000000E+00   0.000000E+00   0.000000E+00   0.000000E+00
            34      G       0.000000E+00   0.000000E+00   0.000000E+00   0.000000E+00   0.000000E+00   0.000000E+00
            35      G      -5.454636E-08  -3.061908E-08   0.000000E+00   0.000000E+00   0.000000E+00   0.000000E+00
            36      G      -1.103489E-07  -1.051586E-07   0.000000E+00   0.000000E+00   0.000000E+00   0.000000E+00
            37      G      -1.640480E-07  -2.237698E-07   0.000000E+00   0.000000E+00   0.000000E+00   0.000000E+00
            38      G      -2.159740E-07  -3.862982E-07   0.000000E+00   0.000000E+00   0.000000E+00   0.000000E+00
            39      G      -2.661054E-07  -5.913733E-07   0.000000E+00   0.000000E+00   0.000000E+00   0.000000E+00
            40      G      -3.144212E-07  -8.374668E-07   0.000000E+00   0.000000E+00   0.000000E+00   0.000000E+00
            41      G      -3.609150E-07  -1.123045E-06   0.000000E+00   0.000000E+00   0.000000E+00   0.000000E+00
            42      G      -4.055861E-07  -1.446583E-06   0.000000E+00   0.000000E+00   0.000000E+00   0.000000E+00
            43      G      -4.484347E-07  -1.806560E-06   0.000000E+00   0.000000E+00   0.000000E+00   0.000000E+00
            44      G      -4.894613E-07  -2.201457E-06   0.000000E+00   0.000000E+00   0.000000E+00   0.000000E+00
            45      G      -5.286658E-07  -2.629757E-06   0.000000E+00   0.000000E+00   0.000000E+00   0.000000E+00
            46      G      -5.660484E-07  -3.089942E-06   0.000000E+00   0.000000E+00   0.000000E+00   0.000000E+00
            47      G      -6.016090E-07  -3.580492E-06   0.000000E+00   0.000000E+00   0.000000E+00   0.000000E+00
            48      G      -6.353477E-07  -4.099889E-06   0.000000E+00   0.000000E+00   0.000000E+00   0.000000E+00
            49      G      -6.672644E-07  -4.646616E-06   0.000000E+00   0.000000E+00   0.000000E+00   0.000000E+00
            50      G      -6.973591E-07  -5.219154E-06   0.000000E+00   0.000000E+00   0.000000E+00   0.000000E+00
            51      G      -7.256319E-07  -5.815985E-06   0.000000E+00   0.000000E+00   0.000000E+00   0.000000E+00
            52      G      -7.520828E-07  -6.435590E-06   0.000000E+00   0.000000E+00   0.000000E+00   0.000000E+00
            53      G      -7.767117E-07  -7.076451E-06   0.000000E+00   0.000000E+00   0.000000E+00   0.000000E+00
            54      G      -7.995187E-07  -7.737050E-06   0.000000E+00   0.000000E+00   0.000000E+00   0.000000E+00
            55      G      -8.205037E-07  -8.415869E-06   0.000000E+00   0.000000E+00   0.000000E+00   0.000000E+00
            56      G      -8.396667E-07  -9.111389E-06   0.000000E+00   0.000000E+00   0.000000E+00   0.000000E+00
            57      G      -8.570078E-07  -9.822091E-06   0.000000E+00   0.000000E+00   0.000000E+00   0.000000E+00
            58      G      -8.725269E-07  -1.054646E-05   0.000000E+00   0.000000E+00   0.000000E+00   0.000000E+00
            59      G      -8.862241E-07  -1.128297E-05   0.000000E+00   0.000000E+00   0.000000E+00   0.000000E+00
            60      G      -8.980992E-07  -1.203011E-05   0.000000E+00   0.000000E+00   0.000000E+00   0.000000E+00
            61      G      -9.081523E-07  -1.278637E-05   0.000000E+00   0.000000E+00   0.000000E+00   0.000000E+00
            62      G      -9.163841E-07  -1.355021E-05   0.000000E+00   0.000000E+00   0.000000E+00   0.000000E+00
            63      G      -9.227984E-07  -1.432013E-05   0.000000E+00   0.000000E+00   0.000000E+00   0.000000E+00
            64      G      -9.274006E-07  -1.509461E-05   0.000000E+00   0.000000E+00   0.000000E+00   0.000000E+00
            65      G      -9.301363E-07  -1.587199E-05   0.000000E+00   0.000000E+00   0.000000E+00   0.000000E+00
            66      G      -9.308761E-07  -1.665020E-05   0.000000E+00   0.000000E+00   0.000000E+00   0.000000E+00
            67      G       0.000000E+00   0.000000E+00   0.000000E+00   0.000000E+00   0.000000E+00   0.000000E+00
            68      G      -3.534252E-08  -2.559781E-08   0.000000E+00   0.000000E+00   0.000000E+00   0.000000E+00
            69      G      -7.281590E-08  -9.955338E-08   0.000000E+00   0.000000E+00   0.000000E+00   0.000000E+00
            70      G      -1.089429E-07  -2.184089E-07   0.000000E+00   0.000000E+00   0.000000E+00   0.000000E+00
            71      G      -1.436515E-07  -3.811436E-07   0.000000E+00   0.000000E+00   0.000000E+00   0.000000E+00
            72      G      -1.770977E-07  -5.864081E-07   0.000000E+00   0.000000E+00   0.000000E+00   0.000000E+00
            73      G      -2.093198E-07  -8.326858E-07   0.000000E+00   0.000000E+00   0.000000E+00   0.000000E+00
            74      G      -2.403255E-07  -1.118447E-06   0.000000E+00   0.000000E+00   0.000000E+00   0.000000E+00
            75      G      -2.701166E-07  -1.442167E-06   0.000000E+00   0.000000E+00   0.000000E+00   0.000000E+00
            76      G      -2.986930E-07  -1.802326E-06   0.000000E+00   0.000000E+00   0.000000E+00   0.000000E+00
            77      G      -3.260548E-07  -2.197406E-06   0.000000E+00   0.000000E+00   0.000000E+00   0.000000E+00
            78      G      -3.522020E-07  -2.625888E-06   0.000000E+00   0.000000E+00   0.000000E+00   0.000000E+00
            79      G      -3.771345E-07  -3.086254E-06   0.000000E+00   0.000000E+00   0.000000E+00   0.000000E+00
            80      G      -4.008525E-07  -3.576987E-06   0.000000E+00   0.000000E+00   0.000000E+00   0.000000E+00
            81      G      -4.233558E-07  -4.096566E-06   0.000000E+00   0.000000E+00   0.000000E+00   0.000000E+00
            82      G      -4.446444E-07  -4.643476E-06   0.000000E+00   0.000000E+00   0.000000E+00   0.000000E+00
            83      G      -4.647184E-07  -5.216196E-06   0.000000E+00   0.000000E+00   0.000000E+00   0.000000E+00
            84      G      -4.835778E-07  -5.813209E-06   0.000000E+00   0.000000E+00   0.000000E+00   0.000000E+00
            85      G      -5.012226E-07  -6.432996E-06   0.000000E+00   0.000000E+00   0.000000E+00   0.000000E+00
            86      G      -5.176527E-07  -7.074039E-06   0.000000E+00   0.000000E+00   0.000000E+00   0.000000E+00
            87      G      -5.328682E-07  -7.734821E-06   0.000000E+00   0.000000E+00   0.000000E+00   0.000000E+00
            88      G      -5.468690E-07  -8.413821E-06   0.000000E+00   0.000000E+00   0.000000E+00   0.000000E+00
            89      G      -5.596552E-07  -9.109523E-06   0.000000E+00   0.000000E+00   0.000000E+00   0.000000E+00
            90      G      -5.712268E-07  -9.820408E-06   0.000000E+00   0.000000E+00   0.000000E+00   0.000000E+00
            91      G      -5.815837E-07  -1.054496E-05   0.000000E+00   0.000000E+00   0.000000E+00   0.000000E+00
            92      G      -5.907260E-07  -1.128165E-05   0.000000E+00   0.000000E+00   0.000000E+00   0.000000E+00
            93      G      -5.986537E-07  -1.202898E-05   0.000000E+00   0.000000E+00   0.000000E+00   0.000000E+00
            94      G      -6.053666E-07  -1.278541E-05   0.000000E+00   0.000000E+00   0.000000E+00   0.000000E+00
            95      G      -6.108660E-07  -1.354944E-05   0.000000E+00   0.000000E+00   0.000000E+00   0.000000E+00
            96      G      -6.151590E-07  -1.431953E-05   0.000000E+00   0.000000E+00   0.000000E+00   0.000000E+00
            97      G      -6.182827E-07  -1.509418E-05   0.000000E+00   0.000000E+00   0.000000E+00   0.000000E+00
            98      G      -6.202665E-07  -1.587182E-05   0.000000E+00   0.000000E+00   0.000000E+00   0.000000E+00
            99      G      -6.206902E-07  -1.665043E-05   0.000000E+00   0.000000E+00   0.000000E+00   0.000000E+00
           100      G       0.000000E+00   0.000000E+00   0.000000E+00   0.000000E+00   0.000000E+00   0.000000E+00
           101      G      -1.725545E-08  -2.279081E-08   0.000000E+00   0.000000E+00   0.000000E+00   0.000000E+00
           102      G      -3.606878E-08  -9.613836E-08   0.000000E+00   0.000000E+00   0.000000E+00   0.000000E+00
           103      G      -5.433541E-08  -2.151193E-07   0.000000E+00   0.000000E+00   0.000000E+00   0.000000E+00
           104      G      -7.178195E-08  -3.780154E-07   0.000000E+00   0.000000E+00   0.000000E+00   0.000000E+00
           105      G      -8.853695E-08  -5.834076E-07   0.000000E+00   0.000000E+00   0.000000E+00   0.000000E+00
           106      G      -1.046650E-07  -8.297994E-07   0.000000E+00   0.000000E+00   0.000000E+00   0.000000E+00
           107      G      -1.201830E-07  -1.115670E-06   0.000000E+00   0.000000E+00   0.000000E+00   0.000000E+00
           108      G      -1.350940E-07  -1.439500E-06   0.000000E+00   0.000000E+00   0.000000E+00   0.000000E+00
           109      G      -1.493982E-07  -1.799768E-06   0.000000E+00   0.000000E+00   0.000000E+00   0.000000E+00
           110      G      -1.630953E-07  -2.194957E-06   0.000000E+00   0.000000E+00   0.000000E+00   0.000000E+00
           111      G      -1.761852E-07  -2.623549E-06   0.000000E+00   0.000000E+00   0.000000E+00   0.000000E+00
           112      G      -1.886677E-07  -3.084025E-06   0.000000E+00   0.000000E+00   0.000000E+00   0.000000E+00
           113      G      -2.005429E-07  -3.574866E-06   0.000000E+00   0.000000E+00   0.000000E+00   0.000000E+00
           114      G      -2.118109E-07  -4.094555E-06   0.000000E+00   0.000000E+00   0.000000E+00   0.000000E+00
           115      G      -2.224714E-07  -4.641574E-06   0.000000E+00   0.000000E+00   0.000000E+00   0.000000E+00
           116      G      -2.325247E-07  -5.214403E-06   0.000000E+00   0.000000E+00   0.000000E+00   0.000000E+00
           117      G      -2.419707E-07  -5.811525E-06   0.000000E+00   0.000000E+00   0.000000E+00   0.000000E+00
           118      G      -2.508093E-07  -6.431422E-06   0.000000E+00   0.000000E+00   0.000000E+00   0.000000E+00
           119      G      -2.590406E-07  -7.072575E-06   0.000000E+00   0.000000E+00   0.000000E+00   0.000000E+00
           120      G      -2.666647E-07  -7.733465E-06   0.000000E+00   0.000000E+00   0.000000E+00   0.000000E+00
           121      G      -2.736813E-07  -8.412575E-06   0.000000E+00   0.000000E+00   0.000000E+00   0.000000E+00
           122      G      -2.800907E-07  -9.108387E-06   0.000000E+00   0.000000E+00   0.000000E+00   0.000000E+00
           123      G      -2.858928E-07  -9.819381E-06   0.000000E+00   0.000000E+00   0.000000E+00   0.000000E+00
           124      G      -2.910875E-07  -1.054404E-05   0.000000E+00   0.000000E+00   0.000000E+00   0.000000E+00
           125      G      -2.956750E-07  -1.128085E-05   0.000000E+00   0.000000E+00   0.000000E+00   0.000000E+00
           126      G      -2.996551E-07  -1.202828E-05   0.000000E+00   0.000000E+00   0.000000E+00   0.000000E+00
           127      G      -3.030280E-07  -1.278482E-05   0.000000E+00   0.000000E+00   0.000000E+00   0.000000E+00
           128      G      -3.057944E-07  -1.354895E-05   0.000000E+00   0.000000E+00   0.000000E+00   0.000000E+00
           129      G      -3.079591E-07  -1.431915E-05   0.000000E+00   0.000000E+00   0.000000E+00   0.000000E+00
           130      G      -3.095487E-07  -1.509389E-05   0.000000E+00   0.000000E+00   0.000000E+00   0.000000E+00
           131      G      -3.107075E-07  -1.587172E-05   0.000000E+00   0.000000E+00   0.000000E+00   0.000000E+00
           132      G      -3.109211E-07  -1.665116E-05   0.000000E+00   0.000000E+00   0.000000E+00   0.000000E+00
           133      G       0.000000E+00   0.000000E+00   0.000000E+00   0.000000E+00   0.000000E+00   0.000000E+00
           134      G       3.754217E-10  -2.192848E-08   0.000000E+00   0.000000E+00   0.000000E+00   0.000000E+00
           135      G       2.122919E-10  -9.493739E-08   0.000000E+00   0.000000E+00   0.000000E+00   0.000000E+00
           136      G      -2.573556E-11  -2.139445E-07   0.000000E+00   0.000000E+00   0.000000E+00   0.000000E+00
           137      G      -1.469697E-10  -3.769229E-07   0.000000E+00   0.000000E+00   0.000000E+00   0.000000E+00
           138      G      -1.995493E-10  -5.823732E-07   0.000000E+00   0.000000E+00   0.000000E+00   0.000000E+00
           139      G      -2.327330E-10  -8.288077E-07   0.000000E+00   0.000000E+00   0.000000E+00   0.000000E+00
           140      G      -2.633869E-10  -1.114716E-06   0.000000E+00   0.000000E+00   0.000000E+00   0.000000E+00
           141      G      -2.947852E-10  -1.438582E-06   0.000000E+00   0.000000E+00   0.000000E+00   0.000000E+00
           142      G      -3.268868E-10  -1.798887E-06   0.000000E+00   0.000000E+00   0.000000E+00   0.000000E+00
           143      G      -3.593033E-10  -2.194112E-06   0.000000E+00   0.000000E+00   0.000000E+00   0.000000E+00
           144      G      -3.918194E-10  -2.622740E-06   0.000000E+00   0.000000E+00   0.000000E+00   0.000000E+00
           145      G      -4.243568E-10  -3.083252E-06   0.000000E+00   0.000000E+00   0.000000E+00   0.000000E+00
           146      G      -4.568952E-10  -3.574130E-06   0.000000E+00   0.000000E+00   0.000000E+00   0.000000E+00
           147      G      -4.894317E-10  -4.093856E-06   0.000000E+00   0.000000E+00   0.000000E+00   0.000000E+00
           148      G      -5.219671E-10  -4.640911E-06   0.000000E+00   0.000000E+00   0.000000E+00   0.000000E+00
           149      G      -5.545021E-10  -5.213777E-06   0.000000E+00   0.000000E+00   0.000000E+00   0.000000E+00
           150      G      -5.870370E-10  -5.810936E-06   0.000000E+00   0.000000E+00   0.000000E+00   0.000000E+00
           151      G      -6.195718E-10  -6.430869E-06   0.000000E+00   0.000000E+00   0.000000E+00   0.000000E+00
           152      G      -6.521066E-10  -7.072058E-06   0.000000E+00   0.000000E+00   0.000000E+00   0.000000E+00
           153      G      -6.846414E-10  -7.732985E-06   0.000000E+00   0.000000E+00   0.000000E+00   0.000000E+00
           154      G      -7.171764E-10  -8.412131E-06   0.000000E+00   0.000000E+00   0.000000E+00   0.000000E+00
           155      G      -7.497129E-10  -9.107979E-06   0.000000E+00   0.000000E+00   0.000000E+00   0.000000E+00
           156      G      -7.822553E-10  -9.819010E-06   0.000000E+00   0.000000E+00   0.000000E+00   0.000000E+00
           157      G      -8.148135E-10  -1.054371E-05   0.000000E+00   0.000000E+00   0.000000E+00   0.000000E+00
           158      G      -8.474030E-10  -1.128055E-05   0.000000E+00   0.000000E+00   0.000000E+00   0.000000E+00
           159      G      -8.800176E-10  -1.202802E-05   0.000000E+00   0.000000E+00   0.000000E+00   0.000000E+00
           160      G      -9.125050E-10  -1.278460E-05   0.000000E+00   0.000000E+00   0.000000E+00   0.000000E+00
           161      G      -9.440929E-10  -1.354876E-05   0.000000E+00   0.000000E+00   0.000000E+00   0.000000E+00
           162      G      -9.715198E-10  -1.431900E-05   0.000000E+00   0.000000E+00   0.000000E+00   0.000000E+00
           163      G      -9.819799E-10  -1.509377E-05   0.000000E+00   0.000000E+00   0.000000E+00   0.000000E+00
           164      G      -9.486355E-10  -1.587160E-05   0.000000E+00   0.000000E+00   0.000000E+00   0.000000E+00
           165      G      -1.457978E-09  -1.665254E-05   0.000000E+00   0.000000E+00   0.000000E+00   0.000000E+00
           166      G       0.000000E+00   0.000000E+00   0.000000E+00   0.000000E+00   0.000000E+00   0.000000E+00
           167      G       1.793572E-08  -2.291778E-08   0.000000E+00   0.000000E+00   0.000000E+00   0.000000E+00
           168      G       3.638887E-08  -9.593620E-08   0.000000E+00   0.000000E+00   0.000000E+00   0.000000E+00
           169      G       5.423653E-08  -2.149084E-07   0.000000E+00   0.000000E+00   0.000000E+00   0.000000E+00
           170      G       7.147986E-08  -3.778767E-07   0.000000E+00   0.000000E+00   0.000000E+00   0.000000E+00
           171      G       8.813914E-08  -5.833074E-07   0.000000E+00   0.000000E+00   0.000000E+00   0.000000E+00
           172      G       1.042011E-07  -8.297111E-07   0.000000E+00   0.000000E+00   0.000000E+00   0.000000E+00
           173      G       1.196569E-07  -1.115584E-06   0.000000E+00   0.000000E+00   0.000000E+00   0.000000E+00
           174      G       1.345047E-07  -1.439413E-06   0.000000E+00   0.000000E+00   0.000000E+00   0.000000E+00
           175      G       1.487445E-07  -1.799682E-06   0.000000E+00   0.000000E+00   0.000000E+00   0.000000E+00
           176      G       1.623767E-07  -2.194871E-06   0.000000E+00   0.000000E+00   0.000000E+00   0.000000E+00
           177      G       1.754015E-07  -2.623462E-06   0.000000E+00   0.000000E+00   0.000000E+00   0.000000E+00
           178      G       1.878190E-07  -3.083938E-06   0.000000E+00   0.000000E+00   0.000000E+00   0.000000E+00
           179      G       1.996291E-07  -3.574779E-06   0.000000E+00   0.000000E+00   0.000000E+00   0.000000E+00
           180      G       2.108320E-07  -4.094469E-06   0.000000E+00   0.000000E+00   0.000000E+00   0.000000E+00
           181      G       2.214275E-07  -4.641487E-06   0.000000E+00   0.000000E+00   0.000000E+00   0.000000E+00
           182      G       2.314157E-07  -5.214317E-06   0.000000E+00   0.000000E+00   0.000000E+00   0.000000E+00
           183      G       2.407966E-07  -5.811439E-06   0.000000E+00   0.000000E+00   0.000000E+00   0.000000E+00
           184      G       2.495702E-07  -6.431335E-06   0.000000E+00   0.000000E+00   0.000000E+00   0.000000E+00
           185      G       2.577364E-07  -7.072488E-06   0.000000E+00   0.000000E+00   0.000000E+00   0.000000E+00
           186      G       2.652954E-07  -7.733379E-06   0.000000E+00   0.000000E+00   0.000000E+00   0.000000E+00
           187      G       2.722470E-07  -8.412489E-06   0.000000E+00   0.000000E+00   0.000000E+00   0.000000E+00
           188      G       2.785913E-07  -9.108300E-06   0.000000E+00   0.000000E+00   0.000000E+00   0.000000E+00
           189      G       2.843283E-07  -9.819294E-06   0.000000E+00   0.000000E+00   0.000000E+00   0.000000E+00
           190      G       2.894579E-07  -1.054395E-05   0.000000E+00   0.000000E+00   0.000000E+00   0.000000E+00
           191      G       2.939802E-07  -1.128076E-05   0.000000E+00   0.000000E+00   0.000000E+00   0.000000E+00
           192      G       2.978952E-07  -1.202819E-05   0.000000E+00   0.000000E+00   0.000000E+00   0.000000E+00
           193      G       3.012032E-07  -1.278473E-05   0.000000E+00   0.000000E+00   0.000000E+00   0.000000E+00
           194      G       3.039059E-07  -1.354887E-05   0.000000E+00   0.000000E+00   0.000000E+00   0.000000E+00
           195      G       3.060106E-07  -1.431907E-05   0.000000E+00   0.000000E+00   0.000000E+00   0.000000E+00
           196      G       3.075417E-07  -1.509381E-05   0.000000E+00   0.000000E+00   0.000000E+00   0.000000E+00
           197      G       3.085432E-07  -1.587155E-05   0.000000E+00   0.000000E+00   0.000000E+00   0.000000E+00
           198      G       3.086751E-07  -1.665110E-05   0.000000E+00   0.000000E+00   0.000000E+00   0.000000E+00
           199      G       0.000000E+00   0.000000E+00   0.000000E+00   0.000000E+00   0.000000E+00   0.000000E+00
           200      G       3.574076E-08  -2.580492E-08   0.000000E+00   0.000000E+00   0.000000E+00   0.000000E+00
           201      G       7.281426E-08  -9.912977E-08   0.000000E+00   0.000000E+00   0.000000E+00   0.000000E+00
           202      G       1.087239E-07  -2.180171E-07   0.000000E+00   0.000000E+00   0.000000E+00   0.000000E+00
           203      G       1.433322E-07  -3.808828E-07   0.000000E+00   0.000000E+00   0.000000E+00   0.000000E+00
           204      G       1.767042E-07  -5.862118E-07   0.000000E+00   0.000000E+00   0.000000E+00   0.000000E+00
           205      G       2.088601E-07  -8.325096E-07   0.000000E+00   0.000000E+00   0.000000E+00   0.000000E+00
           206      G       2.398015E-07  -1.118274E-06   0.000000E+00   0.000000E+00   0.000000E+00   0.000000E+00
           207      G       2.695279E-07  -1.441994E-06   0.000000E+00   0.000000E+00   0.000000E+00   0.000000E+00
           208      G       2.980394E-07  -1.802153E-06   0.000000E+00   0.000000E+00   0.000000E+00   0.000000E+00
           209      G       3.253362E-07  -2.197232E-06   0.000000E+00   0.000000E+00   0.000000E+00   0.000000E+00
           210      G       3.514183E-07  -2.625714E-06   0.000000E+00   0.000000E+00   0.000000E+00   0.000000E+00
           211      G       3.762858E-07  -3.086081E-06   0.000000E+00   0.000000E+00   0.000000E+00   0.000000E+00
           212      G       3.999387E-07  -3.576813E-06   0.000000E+00   0.000000E+00   0.000000E+00   0.000000E+00
           213      G       4.223769E-07  -4.096393E-06   0.000000E+00   0.000000E+00   0.000000E+00   0.000000E+00
           214      G       4.436005E-07  -4.643302E-06   0.000000E+00   0.000000E+00   0.000000E+00   0.000000E+00
           215      G       4.636094E-07  -5.216022E-06   0.000000E+00   0.000000E+00   0.000000E+00   0.000000E+00
           216      G       4.824037E-07  -5.813035E-06   0.000000E+00   0.000000E+00   0.000000E+00   0.000000E+00
           217      G       4.999834E-07  -6.432822E-06   0.000000E+00   0.000000E+00   0.000000E+00   0.000000E+00
           218      G       5.163485E-07  -7.073866E-06   0.000000E+00   0.000000E+00   0.000000E+00   0.000000E+00
           219      G       5.314989E-07  -7.734647E-06   0.000000E+00   0.000000E+00   0.000000E+00   0.000000E+00
           220      G       5.454347E-07  -8.413648E-06   0.000000E+00   0.000000E+00   0.000000E+00   0.000000E+00
           221      G       5.581558E-07  -9.109350E-06   0.000000E+00   0.000000E+00   0.000000E+00   0.000000E+00
           222      G       5.696623E-07  -9.820235E-06   0.000000E+00   0.000000E+00   0.000000E+00   0.000000E+00
           223      G       5.799542E-07  -1.054478E-05   0.000000E+00   0.000000E+00   0.000000E+00   0.000000E+00
           224      G       5.890314E-07  -1.128148E-05   0.000000E+00   0.000000E+00   0.000000E+00   0.000000E+00
           225      G       5.968940E-07  -1.202880E-05   0.000000E+00   0.000000E+00   0.000000E+00   0.000000E+00
           226      G       6.035423E-07  -1.278524E-05   0.000000E+00   0.000000E+00   0.000000E+00   0.000000E+00
           227      G       6.089773E-07  -1.354926E-05   0.000000E+00   0.000000E+00   0.000000E+00   0.000000E+00
           228      G       6.132039E-07  -1.431936E-05   0.000000E+00   0.000000E+00   0.000000E+00   0.000000E+00
           229      G       6.162368E-07  -1.509400E-05   0.000000E+00   0.000000E+00   0.000000E+00   0.000000E+00
           230      G       6.180973E-07  -1.587158E-05   0.000000E+00   0.000000E+00   0.000000E+00   0.000000E+00
           231      G       6.186610E-07  -1.665032E-05   0.000000E+00   0.000000E+00   0.000000E+00   0.000000E+00
           232      G       0.000000E+00   0.000000E+00   0.000000E+00   0.000000E+00   0.000000E+00   0.000000E+00
           233      G       5.417298E-08  -3.076137E-08   0.000000E+00   0.000000E+00   0.000000E+00   0.000000E+00
           234      G       1.098294E-07  -1.045280E-07   0.000000E+00   0.000000E+00   0.000000E+00   0.000000E+00
           235      G       1.637042E-07  -2.232642E-07   0.000000E+00   0.000000E+00   0.000000E+00   0.000000E+00
           236      G       2.156439E-07  -3.859399E-07   0.000000E+00   0.000000E+00   0.000000E+00   0.000000E+00
           237      G       2.657203E-07  -5.910865E-07   0.000000E+00   0.000000E+00   0.000000E+00   0.000000E+00
           238      G       3.139676E-07  -8.372032E-07   0.000000E+00   0.000000E+00   0.000000E+00   0.000000E+00
           239      G       3.603934E-07  -1.122786E-06   0.000000E+00   0.000000E+00   0.000000E+00   0.000000E+00
           240      G       4.049981E-07  -1.446323E-06   0.000000E+00   0.000000E+00   0.000000E+00   0.000000E+00
           241      G       4.477813E-07  -1.806300E-06   0.000000E+00   0.000000E+00   0.000000E+00   0.000000E+00
           242      G       4.887427E-07  -2.201197E-06   0.000000E+00   0.000000E+00   0.000000E+00   0.000000E+00
           243      G       5.278821E-07  -2.629497E-06   0.000000E+00   0.000000E+00   0.000000E+00   0.000000E+00
           244      G       5.651996E-07  -3.089681E-06   0.000000E+00   0.000000E+00   0.000000E+00   0.000000E+00
           245      G       6.006952E-07  -3.580231E-06   0.000000E+00   0.000000E+00   0.000000E+00   0.000000E+00
           246      G       6.343688E-07  -4.099629E-06   0.000000E+00   0.000000E+00   0.000000E+00   0.000000E+00
           247      G       6.662204E-07  -4.646356E-06   0.000000E+00   0.000000E+00   0.000000E+00   0.000000E+00
           248      G       6.962501E-07  -5.218894E-06   0.000000E+00   0.000000E+00   0.000000E+00   0.000000E+00
           249      G       7.244579E-07  -5.815725E-06   0.000000E+00   0.000000E+00   0.000000E+00   0.000000E+00
           250      G       7.508437E-07  -6.435330E-06   0.000000E+00   0.000000E+00   0.000000E+00   0.000000E+00
           251      G       7.754075E-07  -7.076191E-06   0.000000E+00   0.000000E+00   0.000000E+00   0.000000E+00
           252      G       7.981494E-07  -7.736790E-06   0.000000E+00   0.000000E+00   0.000000E+00   0.000000E+00
           253      G       8.190693E-07  -8.415609E-06   0.000000E+00   0.000000E+00   0.000000E+00   0.000000E+00
           254      G       8.381673E-07  -9.111128E-06   0.000000E+00   0.000000E+00   0.000000E+00   0.000000E+00
           255      G       8.554433E-07  -9.821831E-06   0.000000E+00   0.000000E+00   0.000000E+00   0.000000E+00
           256      G       8.708974E-07  -1.054620E-05   0.000000E+00   0.000000E+00   0.000000E+00   0.000000E+00
           257      G       8.845295E-07  -1.128271E-05   0.000000E+00   0.000000E+00   0.000000E+00   0.000000E+00
           258      G       8.963397E-07  -1.202985E-05   0.000000E+00   0.000000E+00   0.000000E+00   0.000000E+00
           259      G       9.063280E-07  -1.278611E-05   0.000000E+00   0.000000E+00   0.000000E+00   0.000000E+00
           260      G       9.144938E-07  -1.354995E-05   0.000000E+00   0.000000E+00   0.000000E+00   0.000000E+00
           261      G       9.208361E-07  -1.431987E-05   0.000000E+00   0.000000E+00   0.000000E+00   0.000000E+00
           262      G       9.253517E-07  -1.509432E-05   0.000000E+00   0.000000E+00   0.000000E+00   0.000000E+00
           263      G       9.280368E-07  -1.587169E-05   0.000000E+00   0.000000E+00   0.000000E+00   0.000000E+00
           264      G       9.289286E-07  -1.665004E-05   0.000000E+00   0.000000E+00   0.000000E+00   0.000000E+00
           265      G       0.000000E+00   0.000000E+00   0.000000E+00   0.000000E+00   0.000000E+00   0.000000E+00
           266      G       7.387960E-08  -3.807139E-08   0.000000E+00   0.000000E+00   0.000000E+00   0.000000E+00
           267      G       1.477334E-07  -1.121383E-07   0.000000E+00   0.000000E+00   0.000000E+00   0.000000E+00
           268      G       2.194137E-07  -2.306335E-07   0.000000E+00   0.000000E+00   0.000000E+00   0.000000E+00
           269      G       2.886407E-07  -3.930417E-07   0.000000E+00   0.000000E+00   0.000000E+00   0.000000E+00
           270      G       3.554100E-07  -5.979300E-07   0.000000E+00   0.000000E+00   0.000000E+00   0.000000E+00
           271      G       4.197457E-07  -8.437915E-07   0.000000E+00   0.000000E+00   0.000000E+00   0.000000E+00
           272      G       4.816554E-07  -1.129119E-06   0.000000E+00   0.000000E+00   0.000000E+00   0.000000E+00
           273      G       5.411386E-07  -1.452402E-06   0.000000E+00   0.000000E+00   0.000000E+00   0.000000E+00
           274      G       5.981936E-07  -1.812123E-06   0.000000E+00   0.000000E+00   0.000000E+00   0.000000E+00
           275      G       6.528196E-07  -2.206765E-06   0.000000E+00   0.000000E+00   0.000000E+00   0.000000E+00
           276      G       7.050164E-07  -2.634810E-06   0.000000E+00   0.000000E+00   0.000000E+00   0.000000E+00
           277      G       7.547839E-07  -3.094739E-06   0.000000E+00   0.000000E+00   0.000000E+00   0.000000E+00
           278      G       8.021222E-07  -3.585034E-06   0.000000E+00   0.000000E+00   0.000000E+00   0.000000E+00
           279      G       8.470312E-07  -4.104177E-06   0.000000E+00   0.000000E+00   0.000000E+00   0.000000E+00
           280      G       8.895109E-07  -4.650649E-06   0.000000E+00   0.000000E+00   0.000000E+00   0.000000E+00
           281      G       9.295613E-07  -5.222932E-06   0.000000E+00   0.000000E+00   0.000000E+00   0.000000E+00
           282      G       9.671825E-07  -5.819507E-06   0.000000E+00   0.000000E+00   0.000000E+00   0.000000E+00
           283      G       1.002374E-06  -6.438857E-06   0.000000E+00   0.000000E+00   0.000000E+00   0.000000E+00
           284      G       1.035137E-06  -7.079464E-06   0.000000E+00   0.000000E+00   0.000000E+00   0.000000E+00
           285      G       1.065470E-06  -7.739807E-06   0.000000E+00   0.000000E+00   0.000000E+00   0.000000E+00
           286      G       1.093374E-06  -8.418371E-06   0.000000E+00   0.000000E+00   0.000000E+00   0.000000E+00
           287      G       1.118849E-06  -9.113636E-06   0.000000E+00   0.000000E+00   0.000000E+00   0.000000E+00
           288      G       1.141895E-06  -9.824083E-06   0.000000E+00   0.000000E+00   0.000000E+00   0.000000E+00
           289      G       1.162511E-06  -1.054820E-05   0.000000E+00   0.000000E+00   0.000000E+00   0.000000E+00
           290      G       1.180698E-06  -1.128445E-05   0.000000E+00   0.000000E+00   0.000000E+00   0.000000E+00
           291      G       1.196456E-06  -1.203134E-05   0.000000E+00   0.000000E+00   0.000000E+00   0.000000E+00
           292      G       1.209784E-06  -1.278734E-05   0.000000E+00   0.000000E+00   0.000000E+00   0.000000E+00
           293      G       1.220681E-06  -1.355093E-05   0.000000E+00   0.000000E+00   0.000000E+00   0.000000E+00
           294      G       1.229140E-06  -1.432059E-05   0.000000E+00   0.000000E+00   0.000000E+00   0.000000E+00
           295      G       1.235140E-06  -1.509478E-05   0.000000E+00   0.000000E+00   0.000000E+00   0.000000E+00
           296      G       1.238650E-06  -1.587189E-05   0.000000E+00   0.000000E+00   0.000000E+00   0.000000E+00
           297      G       1.239807E-06  -1.665005E-05   0.000000E+00   0.000000E+00   0.000000E+00   0.000000E+00

1                                                            S T R E S S E S   I N   T R I A N G U L A R   E L E M E N T S    ( T R I A 3 )
                                                                                                                                                          PAGE    3
0
  ELEMENT      FIBER               STRESSES IN ELEMENT COORD SYSTEM
    ID.        DISTANCE           NORMAL-X       NORMAL-Y      SHEAR-XY
       1  Z1 = 5.000E-01    -5.202571E+05  -2.554578E+04   4.120453E+04
       2  Z1 = 5.000E-01    -4.028039E+05  -1.208412E+05  -7.913855E+04
       3  Z1 = 5.000E-01    -4.926903E+05  -2.046789E+04   5.552634E+04
       4  Z1 = 5.000E-01    -3.690477E+05   1.981705E+04  -5.223124E+04
       5  Z1 = 5.000E-01    -4.843235E+05  -2.085552E+04   5.427355E+04
       6  Z1 = 5.000E-01    -3.545673E+05   2.096901E+04  -5.887306E+04
       7  Z1 = 5.000E-01    -4.708045E+05  -2.063893E+04   5.213039E+04
       8  Z1 = 5.000E-01    -3.424292E+05   2.171278E+04  -5.968118E+04
       9  Z1 = 5.000E-01    -4.550624E+05  -2.009686E+04   5.005306E+04
      10  Z1 = 5.000E-01    -3.304418E+05   2.146986E+04  -5.842719E+04
      11  Z1 = 5.000E-01    -4.386777E+05  -1.945222E+04   4.805003E+04
      12  Z1 = 5.000E-01    -3.184126E+05   2.089808E+04  -5.660696E+04
      13  Z1 = 5.000E-01    -4.221539E+05  -1.878248E+04   4.607755E+04
      14  Z1 = 5.000E-01    -3.063662E+05   2.024122E+04  -5.465954E+04
      15  Z1 = 5.000E-01    -4.056155E+05  -1.810871E+04   4.411401E+04
      16  Z1 = 5.000E-01    -2.943193E+05   1.956790E+04  -5.269293E+04
      17  Z1 = 5.000E-01    -3.890824E+05  -1.743515E+04   4.215220E+04
      18  Z1 = 5.000E-01    -2.822750E+05   1.889343E+04  -5.072725E+04
      19  Z1 = 5.000E-01    -3.725535E+05  -1.676208E+04   4.019041E+04
      20  Z1 = 5.000E-01    -2.702323E+05   1.821986E+04  -4.876373E+04
      21  Z1 = 5.000E-01    -3.560265E+05  -1.608926E+04   3.822845E+04
      22  Z1 = 5.000E-01    -2.581904E+05   1.754686E+04  -4.680124E+04
      23  Z1 = 5.000E-01    -3.394999E+05  -1.541652E+04   3.626639E+04
      24  Z1 = 5.000E-01    -2.461487E+05   1.687408E+04  -4.483908E+04
      25  Z1 = 5.000E-01    -3.229734E+05  -1.474380E+04   3.430430E+04
      26  Z1 = 5.000E-01    -2.341069E+05   1.620136E+04  -4.287699E+04
      27  Z1 = 5.000E-01    -3.064469E+05  -1.407108E+04   3.234219E+04
      28  Z1 = 5.000E-01    -2.220652E+05   1.552864E+04  -4.091489E+04
      29  Z1 = 5.000E-01    -2.899204E+05  -1.339836E+04   3.038009E+04
      30  Z1 = 5.000E-01    -2.100235E+05   1.485592E+04  -3.895280E+04
      31  Z1 = 5.000E-01    -2.733939E+05  -1.272564E+04   2.841798E+04
      32  Z1 = 5.000E-01    -1.979818E+05   1.418320E+04  -3.699069E+04
      33  Z1 = 5.000E-01    -2.568674E+05  -1.205292E+04   2.645588E+04
      34  Z1 = 5.000E-01    -1.859401E+05   1.351048E+04  -3.502859E+04
      35  Z1 = 5.000E-01    -2.403408E+05  -1.138020E+04   2.449378E+04
      36  Z1 = 5.000E-01    -1.738984E+05   1.283776E+04  -3.306649E+04
      37  Z1 = 5.000E-01    -2.238143E+05  -1.070748E+04   2.253167E+04
      38  Z1 = 5.000E-01    -1.618567E+05   1.216504E+04  -3.110438E+04
      39  Z1 = 5.000E-01    -2.072878E+05  -1.003476E+04   2.056957E+04
      40  Z1 = 5.000E-01    -1.498150E+05   1.149232E+04  -2.914228E+04
      41  Z1 = 5.000E-01    -1.907613E+05  -9.362036E+03   1.860747E+04
      42  Z1 = 5.000E-01    -1.377733E+05   1.081960E+04  -2.718018E+04
      43  Z1 = 5.000E-01    -1.742348E+05  -8.689314E+03   1.664536E+04
      44  Z1 = 5.000E-01    -1.257316E+05   1.014688E+04  -2.521808E+04
      45  Z1 = 5.000E-01    -1.577082E+05  -8.016588E+03   1.468324E+04
      46  Z1 = 5.000E-01    -1.136899E+05   9.474164E+03  -2.325598E+04
      47  Z1 = 5.000E-01    -1.411816E+05  -7.343871E+03   1.272107E+04
      48  Z1 = 5.000E-01    -1.016481E+05   8.801456E+03  -2.129389E+04
      49  Z1 = 5.000E-01    -1.246548E+05  -6.671228E+03   1.075888E+04
      50  Z1 = 5.000E-01    -8.960620E+04   8.128749E+03  -1.933178E+04
      51  Z1 = 5.000E-01    -1.081281E+05  -5.998759E+03   8.797002E+03
      52  Z1 = 5.000E-01    -7.756414E+04   7.455977E+03  -1.736956E+04
      53  Z1 = 5.000E-01    -9.160267E+04  -5.325274E+03   6.836446E+03
      54  Z1 = 5.000E-01    -6.552229E+04   6.782982E+03  -1.540717E+04
      55  Z1 = 5.000E-01    -7.507887E+04  -4.638398E+03   4.874223E+03
      56  Z1 = 5.000E-01    -5.348455E+04   6.110164E+03  -1.344597E+04
      57  Z1 = 5.000E-01    -5.852693E+04  -3.900233E+03   2.860104E+03
      58  Z1 = 5.000E-01    -4.147072E+04   5.444046E+03  -1.149500E+04
      59  Z1 = 5.000E-01    -4.174700E+04  -3.176849E+03   5.784743E+02
      60  Z1 = 5.000E-01    -2.948320E+04   4.812885E+03  -9.572075E+03
      61  Z1 = 5.000E-01    -2.424881E+04  -2.879548E+03  -2.007140E+03
      62  Z1 = 5.000E-01    -1.712052E+04   4.211094E+03  -7.577752E+03
      63  Z1 = 5.000E-01    -6.964104E+03  -1.114257E+03  -2.785642E+03
      64  Z1 = 5.000E-01    -4.013818E+03   3.190949E+03  -4.906742E+03
      65  Z1 = 5.000E-01    -3.749938E+05  -2.814080E+04   4.494782E+04
      66  Z1 = 5.000E-01    -2.609909E+05  -7.829727E+04  -6.616049E+04
      67  Z1 = 5.000E-01    -3.810355E+05  -2.014246E+04   4.986464E+04
      68  Z1 = 5.000E-01    -2.489164E+05   9.682425E+03  -6.706033E+04
      69  Z1 = 5.000E-01    -3.668562E+05  -1.999387E+04   4.949941E+04
      70  Z1 = 5.000E-01    -2.357393E+05   2.344640E+04  -6.467523E+04
      71  Z1 = 5.000E-01    -3.549052E+05  -1.987411E+04   4.724174E+04
      72  Z1 = 5.000E-01    -2.266185E+05   2.207745E+04  -6.454268E+04
      73  Z1 = 5.000E-01    -3.427017E+05  -1.939619E+04   4.508615E+04
      74  Z1 = 5.000E-01    -2.184393E+05   2.106568E+04  -6.321492E+04
      75  Z1 = 5.000E-01    -3.303142E+05  -1.877393E+04   4.305971E+04
      76  Z1 = 5.000E-01    -2.104480E+05   2.027989E+04  -6.140671E+04
      77  Z1 = 5.000E-01    -3.178715E+05  -1.810965E+04   4.108375E+04
      78  Z1 = 5.000E-01    -2.024866E+05   1.957434E+04  -5.946490E+04
      79  Z1 = 5.000E-01    -3.054206E+05  -1.743652E+04   3.912100E+04
      80  Z1 = 5.000E-01    -1.945276E+05   1.889352E+04  -5.749822E+04
      81  Z1 = 5.000E-01    -2.929718E+05  -1.676273E+04   3.716006E+04
      82  Z1 = 5.000E-01    -1.865677E+05   1.821935E+04  -5.553149E+04
      83  Z1 = 5.000E-01    -2.805251E+05  -1.608947E+04   3.519867E+04
      84  Z1 = 5.000E-01    -1.786074E+05   1.754660E+04  -5.356732E+04
      85  Z1 = 5.000E-01    -2.680794E+05  -1.541657E+04   3.323683E+04
      86  Z1 = 5.000E-01    -1.706469E+05   1.687399E+04  -5.160456E+04
      87  Z1 = 5.000E-01    -2.556340E+05  -1.474380E+04   3.127480E+04
      88  Z1 = 5.000E-01    -1.626864E+05   1.620134E+04  -4.964232E+04
      89  Z1 = 5.000E-01    -2.431887E+05  -1.407108E+04   2.931271E+04
      90  Z1 = 5.000E-01    -1.547259E+05   1.552864E+04  -4.768021E+04
      91  Z1 = 5.000E-01    -2.307433E+05  -1.339836E+04   2.735060E+04
      92  Z1 = 5.000E-01    -1.467653E+05   1.485593E+04  -4.571812E+04
      93  Z1 = 5.000E-01    -2.182980E+05  -1.272564E+04   2.538850E+04
      94  Z1 = 5.000E-01    -1.388048E+05   1.418320E+04  -4.375602E+04
      95  Z1 = 5.000E-01    -2.058527E+05  -1.205292E+04   2.342639E+04
      96  Z1 = 5.000E-01    -1.308443E+05   1.351048E+04  -4.179392E+04
      97  Z1 = 5.000E-01    -1.934073E+05  -1.138020E+04   2.146429E+04
      98  Z1 = 5.000E-01    -1.228837E+05   1.283776E+04  -3.983182E+04
      99  Z1 = 5.000E-01    -1.809620E+05  -1.070748E+04   1.950219E+04
     100  Z1 = 5.000E-01    -1.149232E+05   1.216504E+04  -3.786972E+04
     101  Z1 = 5.000E-01    -1.685167E+05  -1.003476E+04   1.754008E+04
     102  Z1 = 5.000E-01    -1.069627E+05   1.149232E+04  -3.590761E+04
     103  Z1 = 5.000E-01    -1.560713E+05  -9.362036E+03   1.557798E+04
     104  Z1 = 5.000E-01    -9.900213E+04   1.081960E+04  -3.394551E+04
     105  Z1 = 5.000E-01    -1.436260E+05  -8.689312E+03   1.361588E+04
     106  Z1 = 5.000E-01    -9.104160E+04   1.014688E+04  -3.198341E+04
     107  Z1 = 5.000E-01    -1.311806E+05  -8.016579E+03   1.165376E+04
     108  Z1 = 5.000E-01    -8.308106E+04   9.474159E+03  -3.002131E+04
     109  Z1 = 5.000E-01    -1.187353E+05  -7.343832E+03   9.691623E+03
     110  Z1 = 5.000E-01    -7.512054E+04   8.801446E+03  -2.805922E+04
     111  Z1 = 5.000E-01    -1.062899E+05  -6.671092E+03   7.729424E+03
     112  Z1 = 5.000E-01    -6.716001E+04   8.128743E+03  -2.609715E+04
     113  Z1 = 5.000E-01    -9.384437E+04  -5.998476E+03   5.767165E+03
     114  Z1 = 5.000E-01    -5.919944E+04   7.456030E+03  -2.413508E+04
     115  Z1 = 5.000E-01    -8.139872E+04  -5.325984E+03   3.804971E+03
     116  Z1 = 5.000E-01    -5.123873E+04   6.783215E+03  -2.217294E+04
     117  Z1 = 5.000E-01    -6.895236E+04  -4.650560E+03   1.842700E+03
     118  Z1 = 5.000E-01    -4.327825E+04   6.110158E+03  -2.021043E+04
     119  Z1 = 5.000E-01    -5.650235E+04  -3.949171E+03  -1.246998E+02
     120  Z1 = 5.000E-01    -3.532407E+04   5.437927E+03  -1.824732E+04
     121  Z1 = 5.000E-01    -4.404223E+04  -3.127645E+03  -2.130387E+03
     122  Z1 = 5.000E-01    -2.741609E+04   4.776707E+03  -1.628565E+04
     123  Z1 = 5.000E-01    -3.160359E+04  -2.255079E+03  -4.358349E+03
     124  Z1 = 5.000E-01    -1.974238E+04   4.162311E+03  -1.435205E+04
     125  Z1 = 5.000E-01    -1.925995E+04  -2.920325E+03  -6.993445E+03
     126  Z1 = 5.000E-01    -1.226788E+04   3.545634E+03  -1.252346E+04
     127  Z1 = 5.000E-01    -6.744883E+03  -5.912602E+03  -7.089122E+03
     128  Z1 = 5.000E-01    -2.186889E+03   2.201593E+03  -1.016915E+04
     129  Z1 = 5.000E-01    -2.454444E+05  -2.647575E+04   5.070981E+04
     130  Z1 = 5.000E-01    -1.274248E+05  -3.822745E+04  -5.890548E+04
     131  Z1 = 5.000E-01    -2.578125E+05  -1.997144E+04   4.629619E+04
     132  Z1 = 5.000E-01    -1.233828E+05   1.014275E+04  -7.270490E+04
     133  Z1 = 5.000E-01    -2.485640E+05  -1.930266E+04   4.565227E+04
     134  Z1 = 5.000E-01    -1.159780E+05   2.257891E+04  -7.007700E+04
     135  Z1 = 5.000E-01    -2.389844E+05  -1.914236E+04   4.378114E+04
     136  Z1 = 5.000E-01    -1.106162E+05   2.208167E+04  -6.817572E+04
     137  Z1 = 5.000E-01    -2.303692E+05  -1.870084E+04   4.170892E+04
     138  Z1 = 5.000E-01    -1.064041E+05   2.063172E+04  -6.647206E+04
     139  Z1 = 5.000E-01    -2.219609E+05  -1.809639E+04   3.969771E+04
     140  Z1 = 5.000E-01    -1.024807E+05   1.966573E+04  -6.458930E+04
     141  Z1 = 5.000E-01    -2.135900E+05  -1.743696E+04   3.772418E+04
     142  Z1 = 5.000E-01    -9.860801E+04   1.890948E+04  -6.263580E+04
     143  Z1 = 5.000E-01    -2.052249E+05  -1.676439E+04   3.576180E+04
     144  Z1 = 5.000E-01    -9.473647E+04   1.821911E+04  -6.066832E+04
     145  Z1 = 5.000E-01    -1.968606E+05  -1.609034E+04   3.380092E+04
     146  Z1 = 5.000E-01    -9.086073E+04   1.754488E+04  -5.870194E+04
     147  Z1 = 5.000E-01    -1.884965E+05  -1.541687E+04   3.183954E+04
     148  Z1 = 5.000E-01    -8.698256E+04   1.687308E+04  -5.673798E+04
     149  Z1 = 5.000E-01    -1.801323E+05  -1.474388E+04   2.987771E+04
     150  Z1 = 5.000E-01    -8.310349E+04   1.620102E+04  -5.477530E+04
     151  Z1 = 5.000E-01    -1.717681E+05  -1.407109E+04   2.791568E+04
     152  Z1 = 5.000E-01    -7.922416E+04   1.552856E+04  -5.281308E+04
     153  Z1 = 5.000E-01    -1.634040E+05  -1.339836E+04   2.595359E+04
     154  Z1 = 5.000E-01    -7.534479E+04   1.485592E+04  -5.085097E+04
     155  Z1 = 5.000E-01    -1.550398E+05  -1.272564E+04   2.399148E+04
     156  Z1 = 5.000E-01    -7.146542E+04   1.418321E+04  -4.888888E+04
     157  Z1 = 5.000E-01    -1.466756E+05  -1.205292E+04   2.202938E+04
     158  Z1 = 5.000E-01    -6.758605E+04   1.351049E+04  -4.692678E+04
     159  Z1 = 5.000E-01    -1.383115E+05  -1.138020E+04   2.006727E+04
     160  Z1 = 5.000E-01    -6.370669E+04   1.283776E+04  -4.496468E+04
     161  Z1 = 5.000E-01    -1.299473E+05  -1.070748E+04   1.810517E+04
     162  Z1 = 5.000E-01    -5.982733E+04   1.216504E+04  -4.300258E+04
     163  Z1 = 5.000E-01    -1.215831E+05  -1.003476E+04   1.614307E+04
     164  Z1 = 5.000E-01    -5.594798E+04   1.149232E+04  -4.104048E+04
     165  Z1 = 5.000E-01    -1.132190E+05  -9.362036E+03   1.418096E+04
     166  Z1 = 5.000E-01    -5.206862E+04   1.081960E+04  -3.907837E+04
     167  Z1 = 5.000E-01    -1.048548E+05  -8.689314E+03   1.221886E+04
     168  Z1 = 5.000E-01    -4.818926E+04   1.014688E+04  -3.711627E+04
     169  Z1 = 5.000E-01    -9.649064E+04  -8.016586E+03   1.025675E+04
     170  Z1 = 5.000E-01    -4.430990E+04   9.474157E+03  -3.515417E+04
     171  Z1 = 5.000E-01    -8.812646E+04  -7.343844E+03   8.294639E+03
     172  Z1 = 5.000E-01    -4.043055E+04   8.801440E+03  -3.319207E+04
     173  Z1 = 5.000E-01    -7.976229E+04  -6.671074E+03   6.332499E+03
     174  Z1 = 5.000E-01    -3.655121E+04   8.128731E+03  -3.122997E+04
     175  Z1 = 5.000E-01    -7.139812E+04  -5.998296E+03   4.370300E+03
     176  Z1 = 5.000E-01    -3.267193E+04   7.456036E+03  -2.926790E+04
     177  Z1 = 5.000E-01    -6.303394E+04  -5.325641E+03   2.407998E+03
     178  Z1 = 5.000E-01    -2.879270E+04   6.783330E+03  -2.730586E+04
     179  Z1 = 5.000E-01    -5.466966E+04  -4.653206E+03   4.455850E+02
     180  Z1 = 5.000E-01    -2.491352E+04   6.110487E+03  -2.534377E+04
     181  Z1 = 5.000E-01    -4.630488E+04  -3.978621E+03  -1.516704E+03
     182  Z1 = 5.000E-01    -2.103467E+04   5.437291E+03  -2.338114E+04
     183  Z1 = 5.000E-01    -3.794055E+04  -3.283699E+03  -3.476780E+03
     184  Z1 = 5.000E-01    -1.716022E+04   4.764778E+03  -2.141533E+04
     185  Z1 = 5.000E-01    -2.959668E+04  -2.491921E+03  -5.419333E+03
     186  Z1 = 5.000E-01    -1.331627E+04   4.103587E+03  -1.943431E+04
     187  Z1 = 5.000E-01    -2.141652E+04  -1.418159E+03  -7.279636E+03
     188  Z1 = 5.000E-01    -9.632723E+03   3.497265E+03  -1.740465E+04
     189  Z1 = 5.000E-01    -1.410012E+04  -2.561836E+03  -9.673543E+03
     190  Z1 = 5.000E-01    -6.906513E+03   2.934842E+03  -1.551853E+04
     191  Z1 = 5.000E-01    -7.139821E+03  -1.430818E+04  -1.081981E+04
     192  Z1 = 5.000E-01    -1.027721E+03   1.359884E+03  -1.430557E+04
     193  Z1 = 5.000E-01    -1.226489E+05  -2.230750E+04   5.501706E+04
     194  Z1 = 5.000E-01     2.772345E+03   8.317034E+02  -5.667669E+04
     195  Z1 = 5.000E-01    -1.322777E+05  -1.950712E+04   4.485635E+04
     196  Z1 = 5.000E-01     3.571334E+03   1.555855E+04  -7.477742E+04
     197  Z1 = 5.000E-01    -1.283854E+05  -1.877908E+04   4.340413E+04
     198  Z1 = 5.000E-01     4.893753E+03   2.164433E+04  -7.315598E+04
     199  Z1 = 5.000E-01    -1.227850E+05  -1.848074E+04   4.184823E+04
     200  Z1 = 5.000E-01     5.611288E+03   2.141994E+04  -7.031248E+04
     201  Z1 = 5.000E-01    -1.180004E+05  -1.802254E+04   3.993587E+04
     202  Z1 = 5.000E-01     5.662737E+03   2.005357E+04  -6.813783E+04
     203  Z1 = 5.000E-01    -1.136069E+05  -1.742181E+04   3.796486E+04
     204  Z1 = 5.000E-01     5.483825E+03   1.902273E+04  -6.614301E+04
     205  Z1 = 5.000E-01    -1.093102E+05  -1.676435E+04   3.599841E+04
     206  Z1 = 5.000E-01     5.266031E+03   1.824008E+04  -6.417074E+04
     207  Z1 = 5.000E-01    -1.050298E+05  -1.609203E+04   3.403621E+04
     208  Z1 = 5.000E-01     5.052321E+03   1.754439E+04  -6.220331E+04
     209  Z1 = 5.000E-01    -1.007495E+05  -1.541782E+04   3.207475E+04
     210  Z1 = 5.000E-01     4.845442E+03   1.687055E+04  -6.023876E+04
     211  Z1 = 5.000E-01    -9.646776E+04  -1.474422E+04   3.011305E+04
     212  Z1 = 5.000E-01     4.642060E+03   1.619966E+04  -5.827580E+04
     213  Z1 = 5.000E-01    -9.218515E+04  -1.407117E+04   2.815110E+04
     214  Z1 = 5.000E-01     4.439916E+03   1.552808E+04  -5.631348E+04
     215  Z1 = 5.000E-01    -8.790224E+04  -1.339837E+04   2.618903E+04
     216  Z1 = 5.000E-01     4.238088E+03   1.485580E+04  -5.435136E+04
     217  Z1 = 5.000E-01    -8.361925E+04  -1.272563E+04   2.422694E+04
     218  Z1 = 5.000E-01     4.036301E+03   1.418319E+04  -5.238927E+04
     219  Z1 = 5.000E-01    -7.933625E+04  -1.205292E+04   2.226483E+04
     220  Z1 = 5.000E-01     3.834502E+03   1.351049E+04  -5.042717E+04
     221  Z1 = 5.000E-01    -7.505326E+04  -1.138020E+04   2.030273E+04
     222  Z1 = 5.000E-01     3.632692E+03   1.283777E+04  -4.846507E+04
     223  Z1 = 5.000E-01    -7.077027E+04  -1.070748E+04   1.834062E+04
     224  Z1 = 5.000E-01     3.430878E+03   1.216504E+04  -4.650297E+04
     225  Z1 = 5.000E-01    -6.648727E+04  -1.003476E+04   1.637852E+04
     226  Z1 = 5.000E-01     3.229062E+03   1.149232E+04  -4.454087E+04
     227  Z1 = 5.000E-01    -6.220428E+04  -9.362036E+03   1.441641E+04
     228  Z1 = 5.000E-01     3.027245E+03   1.081960E+04  -4.257876E+04
     229  Z1 = 5.000E-01    -5.792129E+04  -8.689315E+03   1.245431E+04
     230  Z1 = 5.000E-01     2.825429E+03   1.014688E+04  -4.061666E+04
     231  Z1 = 5.000E-01    -5.363830E+04  -8.016592E+03   1.049221E+04
     232  Z1 = 5.000E-01     2.623613E+03   9.474156E+03  -3.865456E+04
     233  Z1 = 5.000E-01    -4.935531E+04  -7.343863E+03   8.530102E+03
     234  Z1 = 5.000E-01     2.421796E+03   8.801436E+03  -3.669245E+04
     235  Z1 = 5.000E-01    -4.507231E+04  -6.671115E+03   6.567992E+03
     236  Z1 = 5.000E-01     2.219970E+03   8.128720E+03  -3.473035E+04
     237  Z1 = 5.000E-01    -4.078933E+04  -5.998335E+03   4.605871E+03
     238  Z1 = 5.000E-01     2.018120E+03   7.456015E+03  -3.276825E+04
     239  Z1 = 5.000E-01    -3.650640E+04  -5.325545E+03   2.643722E+03
     240  Z1 = 5.000E-01     1.816207E+03   6.783327E+03  -3.080616E+04
     241  Z1 = 5.000E-01    -3.222359E+04  -4.652954E+03   6.815403E+02
     242  Z1 = 5.000E-01     1.614189E+03   6.110632E+03  -2.884409E+04
     243  Z1 = 5.000E-01    -2.794105E+04  -3.981296E+03  -1.280469E+03
     244  Z1 = 5.000E-01     1.412161E+03   5.437770E+03  -2.688200E+04
     245  Z1 = 5.000E-01    -2.365948E+04  -3.312070E+03  -3.240428E+03
     246  Z1 = 5.000E-01     1.210978E+03   4.764313E+03  -2.491926E+04
     247  Z1 = 5.000E-01    -1.938362E+04  -2.646549E+03  -5.186205E+03
     248  Z1 = 5.000E-01     1.014793E+03   4.090212E+03  -2.295173E+04
     249  Z1 = 5.000E-01    -1.514310E+04  -1.985877E+03  -7.053995E+03
     250  Z1 = 5.000E-01     8.420355E+02   3.421148E+03  -2.095868E+04
     251  Z1 = 5.000E-01    -1.108746E+04  -1.351849E+03  -8.572549E+03
     252  Z1 = 5.000E-01     7.657414E+02   2.786777E+03  -1.886566E+04
     253  Z1 = 5.000E-01    -7.894103E+03  -3.571257E+02  -8.896165E+03
     254  Z1 = 5.000E-01     8.971323E+02   2.243528E+03  -1.659344E+04
     255  Z1 = 5.000E-01    -9.235837E+03  -2.600050E+04  -1.492523E+04
     256  Z1 = 5.000E-01    -3.098300E+03   1.081615E+03  -1.689777E+04
     257  Z1 = 5.000E-01    -2.706823E+03  -1.743219E+04   5.678988E+04
     258  Z1 = 5.000E-01     1.324484E+05   3.973453E+04  -5.923363E+04
     259  Z1 = 5.000E-01    -6.736486E+03  -1.880085E+04   4.505639E+04
     260  Z1 = 5.000E-01     1.307902E+05   2.261692E+04  -7.525797E+04
     261  Z1 = 5.000E-01    -7.096389E+03  -1.832281E+04   4.303016E+04
     262  Z1 = 5.000E-01     1.262662E+05   2.109997E+04  -7.374103E+04
     263  Z1 = 5.000E-01    -6.178189E+03  -1.787832E+04   4.158302E+04
     264  Z1 = 5.000E-01     1.219968E+05   2.040513E+04  -7.059281E+04
     265  Z1 = 5.000E-01    -5.562217E+03  -1.736294E+04   3.979384E+04
     266  Z1 = 5.000E-01     1.177394E+05   1.929696E+04  -6.813959E+04
     267  Z1 = 5.000E-01    -5.248208E+03  -1.675071E+04   3.786456E+04
     268  Z1 = 5.000E-01     1.134373E+05   1.833692E+04  -6.605501E+04
     269  Z1 = 5.000E-01    -5.033505E+03  -1.609170E+04   3.590604E+04
     270  Z1 = 5.000E-01     1.091324E+05   1.756348E+04  -6.406920E+04
     271  Z1 = 5.000E-01    -4.836777E+03  -1.541927E+04   3.394372E+04
     272  Z1 = 5.000E-01     1.048378E+05   1.686970E+04  -6.210414E+04
     273  Z1 = 5.000E-01    -4.639246E+03  -1.474508E+04   3.198133E+04
     274  Z1 = 5.000E-01     1.005505E+05   1.619693E+04  -6.014252E+04
     275  Z1 = 5.000E-01    -4.439286E+03  -1.407149E+04   3.001911E+04
     276  Z1 = 5.000E-01     9.626643E+04   1.552663E+04  -5.818100E+04
     277  Z1 = 5.000E-01    -4.238043E+03  -1.339845E+04   2.805697E+04
     278  Z1 = 5.000E-01     9.198329E+04   1.485528E+04  -5.621918E+04
     279  Z1 = 5.000E-01    -4.036345E+03  -1.272565E+04   2.609486E+04
     280  Z1 = 5.000E-01     8.770035E+04   1.418307E+04  -5.425717E+04
     281  Z1 = 5.000E-01    -3.834531E+03  -1.205291E+04   2.413275E+04
     282  Z1 = 5.000E-01     8.341740E+04   1.351048E+04  -5.229510E+04
     283  Z1 = 5.000E-01    -3.632704E+03  -1.138019E+04   2.217065E+04
     284  Z1 = 5.000E-01     7.913443E+04   1.283777E+04  -5.033300E+04
     285  Z1 = 5.000E-01    -3.430881E+03  -1.070748E+04   2.020854E+04
     286  Z1 = 5.000E-01     7.485144E+04   1.216505E+04  -4.837089E+04
     287  Z1 = 5.000E-01    -3.229062E+03  -1.003476E+04   1.824644E+04
     288  Z1 = 5.000E-01     7.056845E+04   1.149232E+04  -4.640879E+04
     289  Z1 = 5.000E-01    -3.027245E+03  -9.362036E+03   1.628434E+04
     290  Z1 = 5.000E-01     6.628546E+04   1.081960E+04  -4.444669E+04
     291  Z1 = 5.000E-01    -2.825429E+03  -8.689315E+03   1.432223E+04
     292  Z1 = 5.000E-01     6.200247E+04   1.014688E+04  -4.248458E+04
     293  Z1 = 5.000E-01    -2.623612E+03  -8.016594E+03   1.236013E+04
     294  Z1 = 5.000E-01     5.771948E+04   9.474156E+03  -4.052248E+04
     295  Z1 = 5.000E-01    -2.421795E+03  -7.343871E+03   1.039803E+04
     296  Z1 = 5.000E-01     5.343648E+04   8.801435E+03  -3.856038E+04
     297  Z1 = 5.000E-01    -2.219978E+03  -6.671142E+03   8.435922E+03
     298  Z1 = 5.000E-01     4.915349E+04   8.128715E+03  -3.659827E+04
     299  Z1 = 5.000E-01    -2.018165E+03  -5.998398E+03   6.473821E+03
     300  Z1 = 5.000E-01     4.487049E+04   7.455999E+03  -3.463617E+04
     301  Z1 = 5.000E-01    -1.816372E+03  -5.325626E+03   4.511727E+03
     302  Z1 = 5.000E-01     4.058748E+04   6.783295E+03  -3.267406E+04
     303  Z1 = 5.000E-01    -1.614650E+03  -4.652862E+03   2.549658E+03
     304  Z1 = 5.000E-01     3.630442E+04   6.110610E+03  -3.071194E+04
     305  Z1 = 5.000E-01    -1.413120E+03  -3.980395E+03   5.876610E+02
     306  Z1 = 5.000E-01     3.202129E+04   5.437920E+03  -2.874983E+04
     307  Z1 = 5.000E-01    -1.212016E+03  -3.309485E+03  -1.374005E+03
     308  Z1 = 5.000E-01     2.773833E+04   4.765039E+03  -2.678775E+04
     309  Z1 = 5.000E-01    -1.011638E+03  -2.644408E+03  -3.333707E+03
     310  Z1 = 5.000E-01     2.345722E+04   4.091287E+03  -2.482540E+04
     311  Z1 = 5.000E-01    -8.114697E+02  -1.997331E+03  -5.282606E+03
     312  Z1 = 5.000E-01     1.918671E+04   3.415098E+03  -2.286004E+04
     313  Z1 = 5.000E-01    -6.022934E+02  -1.393282E+03  -7.183810E+03
     314  Z1 = 5.000E-01     1.496361E+04   2.735193E+03  -2.087684E+04
     315  Z1 = 5.000E-01    -3.085893E+02  -7.943253E+02  -8.940260E+03
     316  Z1 = 5.000E-01     1.090716E+04   2.059555E+03  -1.882281E+04
     317  Z1 = 5.000E-01     5.500800E+02   1.086687E+03  -1.061607E+04
     318  Z1 = 5.000E-01     7.163961E+03   1.447440E+03  -1.662175E+04
     319  Z1 = 5.000E-01     4.211751E+03   2.544845E+04  -1.447985E+04
     320  Z1 = 5.000E-01     1.277939E+03   1.305045E+03  -1.504436E+04
     321  Z1 = 5.000E-01     1.164581E+05  -1.356658E+04   5.581428E+04
     322  Z1 = 5.000E-01     2.639318E+05   7.917953E+04  -6.669579E+04
     323  Z1 = 5.000E-01     1.185819E+05  -1.807744E+04   4.663951E+04
     324  Z1 = 5.000E-01     2.577832E+05   2.883096E+04  -7.446862E+04
     325  Z1 = 5.000E-01     1.145806E+05  -1.785232E+04   4.457520E+04
     326  Z1 = 5.000E-01     2.474918E+05   2.059551E+04  -7.191401E+04
     327  Z1 = 5.000E-01     1.106867E+05  -1.729522E+04   4.306631E+04
     328  Z1 = 5.000E-01     2.383513E+05   1.927890E+04  -6.887250E+04
     329  Z1 = 5.000E-01     1.069362E+05  -1.671384E+04   4.130772E+04
     330  Z1 = 5.000E-01     2.297908E+05   1.843602E+04  -6.641976E+04
     331  Z1 = 5.000E-01     1.031117E+05  -1.608185E+04   3.939978E+04
     332  Z1 = 5.000E-01     2.213728E+05   1.761716E+04  -6.431825E+04
     333  Z1 = 5.000E-01     9.923774E+04  -1.541885E+04   3.744623E+04
     334  Z1 = 5.000E-01     2.129902E+05   1.688171E+04  -6.233289E+04
     335  Z1 = 5.000E-01     9.535309E+04  -1.474610E+04   3.548355E+04
     336  Z1 = 5.000E-01     2.046202E+05   1.619589E+04  -6.037263E+04
     337  Z1 = 5.000E-01     9.146983E+04  -1.407212E+04   3.352029E+04
     338  Z1 = 5.000E-01     1.962548E+05   1.552442E+04  -5.841415E+04
     339  Z1 = 5.000E-01     8.758884E+04  -1.339869E+04   3.155760E+04
     340  Z1 = 5.000E-01     1.878907E+05   1.485414E+04  -5.645392E+04
     341  Z1 = 5.000E-01     8.370900E+04  -1.272571E+04   2.959530E+04
     342  Z1 = 5.000E-01     1.795267E+05   1.418267E+04  -5.449248E+04
     343  Z1 = 5.000E-01     7.982955E+04  -1.205292E+04   2.763314E+04
     344  Z1 = 5.000E-01     1.711626E+05   1.351039E+04  -5.253055E+04
     345  Z1 = 5.000E-01     7.595020E+04  -1.138019E+04   2.567103E+04
     346  Z1 = 5.000E-01     1.627985E+05   1.283777E+04  -5.056847E+04
     347  Z1 = 5.000E-01     7.207085E+04  -1.070747E+04   2.370893E+04
     348  Z1 = 5.000E-01     1.544344E+05   1.216505E+04  -4.860636E+04
     349  Z1 = 5.000E-01     6.819150E+04  -1.003476E+04   2.174683E+04
     350  Z1 = 5.000E-01     1.460702E+05   1.149233E+04  -4.664425E+04
     351  Z1 = 5.000E-01     6.431214E+04  -9.362036E+03   1.978473E+04
     352  Z1 = 5.000E-01     1.377060E+05   1.081960E+04  -4.468214E+04
     353  Z1 = 5.000E-01     6.043278E+04  -8.689315E+03   1.782263E+04
     354  Z1 = 5.000E-01     1.293419E+05   1.014688E+04  -4.272004E+04
     355  Z1 = 5.000E-01     5.655343E+04  -8.016594E+03   1.586052E+04
     356  Z1 = 5.000E-01     1.209777E+05   9.474156E+03  -4.075793E+04
     357  Z1 = 5.000E-01     5.267407E+04  -7.343873E+03   1.389842E+04
     358  Z1 = 5.000E-01     1.126135E+05   8.801435E+03  -3.879583E+04
     359  Z1 = 5.000E-01     4.879471E+04  -6.671150E+03   1.193632E+04
     360  Z1 = 5.000E-01     1.042494E+05   8.128714E+03  -3.683373E+04
     361  Z1 = 5.000E-01     4.491535E+04  -5.998424E+03   9.974213E+03
     362  Z1 = 5.000E-01     9.588519E+04   7.455994E+03  -3.487162E+04
     363  Z1 = 5.000E-01     4.103599E+04  -5.325689E+03   8.012118E+03
     364  Z1 = 5.000E-01     8.752102E+04   6.783277E+03  -3.290951E+04
     365  Z1 = 5.000E-01     3.715661E+04  -4.652940E+03   6.050049E+03
     366  Z1 = 5.000E-01     7.915685E+04   6.110571E+03  -3.094740E+04
     367  Z1 = 5.000E-01     3.327717E+04  -3.980215E+03   4.088040E+03
     368  Z1 = 5.000E-01     7.079268E+04   5.437882E+03  -2.898526E+04
     369  Z1 = 5.000E-01     2.939758E+04  -3.307772E+03   2.126137E+03
     370  Z1 = 5.000E-01     6.242853E+04   4.765192E+03  -2.702313E+04
     371  Z1 = 5.000E-01     2.551780E+04  -2.636734E+03   1.642994E+02
     372  Z1 = 5.000E-01     5.406455E+04   4.092317E+03  -2.506112E+04
     373  Z1 = 5.000E-01     2.163855E+04  -1.970972E+03  -1.797904E+03
     374  Z1 = 5.000E-01     4.570183E+04   3.418476E+03  -2.309956E+04
     375  Z1 = 5.000E-01     1.776588E+04  -1.321005E+03  -3.762181E+03
     376  Z1 = 5.000E-01     3.734589E+04   2.741230E+03  -2.113858E+04
     377  Z1 = 5.000E-01     1.393236E+04  -7.023275E+02  -5.735614E+03
     378  Z1 = 5.000E-01     2.901910E+04   2.054961E+03  -1.917462E+04
     379  Z1 = 5.000E-01     1.027833E+04  -3.656014E+01  -7.753878E+03
     380  Z1 = 5.000E-01     2.078776E+04   1.354294E+03  -1.718682E+04
     381  Z1 = 5.000E-01     7.252586E+03   1.742858E+03  -9.963327E+03
     382  Z1 = 5.000E-01     1.271030E+04   6.930306E+02  -1.510056E+04
     383  Z1 = 5.000E-01     5.293485E+03   1.469020E+04  -1.185128E+04
     384  Z1 = 5.000E-01     4.020048E+03   7.730966E+02  -1.255905E+04
     385  Z1 = 5.000E-01     2.364806E+05  -1.232428E+04   5.240472E+04
     386  Z1 = 5.000E-01     4.000466E+05   1.200140E+05  -7.950632E+04
     387  Z1 = 5.000E-01     2.438759E+05  -1.752683E+04   4.965799E+04
     388  Z1 = 5.000E-01     3.835499E+05   3.179649E+04  -7.155774E+04
     389  Z1 = 5.000E-01     2.361185E+05  -1.731532E+04   4.797907E+04
     390  Z1 = 5.000E-01     3.679474E+05   1.969463E+04  -6.771296E+04
     391  Z1 = 5.000E-01     2.275603E+05  -1.669100E+04   4.629934E+04
     392  Z1 = 5.000E-01     3.544935E+05   1.819719E+04  -6.519690E+04
     393  Z1 = 5.000E-01     2.194410E+05  -1.606316E+04   4.448394E+04
     394  Z1 = 5.000E-01     3.417866E+05   1.757687E+04  -6.298084E+04
     395  Z1 = 5.000E-01     2.114637E+05  -1.541321E+04   4.257046E+04
     396  Z1 = 5.000E-01     3.292891E+05   1.689127E+04  -6.093640E+04
     397  Z1 = 5.000E-01     2.035020E+05  -1.474584E+04   4.061757E+04
     398  Z1 = 5.000E-01     3.168414E+05   1.620009E+04  -5.896581E+04
     399  Z1 = 5.000E-01     1.955396E+05  -1.407274E+04   3.865484E+04
     400  Z1 = 5.000E-01     3.044010E+05   1.552388E+04  -5.701104E+04
     401  Z1 = 5.000E-01     1.875778E+05  -1.339907E+04   3.669129E+04
     402  Z1 = 5.000E-01     2.919591E+05   1.485308E+04  -5.505454E+04
     403  Z1 = 5.000E-01     1.796167E+05  -1.272585E+04   3.472843E+04
     404  Z1 = 5.000E-01     2.795151E+05   1.418213E+04  -5.309482E+04
     405  Z1 = 5.000E-01     1.716560E+05  -1.205296E+04   3.276607E+04
     406  Z1 = 5.000E-01     2.670702E+05   1.351021E+04  -5.113344E+04
     407  Z1 = 5.000E-01     1.636955E+05  -1.138020E+04   3.080390E+04
     408  Z1 = 5.000E-01     2.546250E+05   1.283773E+04  -4.917147E+04
     409  Z1 = 5.000E-01     1.557349E+05  -1.070747E+04   2.884179E+04
     410  Z1 = 5.000E-01     2.421796E+05   1.216505E+04  -4.720936E+04
     411  Z1 = 5.000E-01     1.477744E+05  -1.003475E+04   2.687969E+04
     412  Z1 = 5.000E-01     2.297343E+05   1.149233E+04  -4.524724E+04
     413  Z1 = 5.000E-01     1.398139E+05  -9.362035E+03   2.491759E+04
     414  Z1 = 5.000E-01     2.172889E+05   1.081960E+04  -4.328513E+04
     415  Z1 = 5.000E-01     1.318533E+05  -8.689315E+03   2.295549E+04
     416  Z1 = 5.000E-01     2.048436E+05   1.014688E+04  -4.132302E+04
     417  Z1 = 5.000E-01     1.238928E+05  -8.016594E+03   2.099338E+04
     418  Z1 = 5.000E-01     1.923983E+05   9.474157E+03  -3.936091E+04
     419  Z1 = 5.000E-01     1.159323E+05  -7.343873E+03   1.903128E+04
     420  Z1 = 5.000E-01     1.799529E+05   8.801435E+03  -3.739881E+04
     421  Z1 = 5.000E-01     1.079717E+05  -6.671151E+03   1.706918E+04
     422  Z1 = 5.000E-01     1.675076E+05   8.128714E+03  -3.543671E+04
     423  Z1 = 5.000E-01     1.000112E+05  -5.998430E+03   1.510707E+04
     424  Z1 = 5.000E-01     1.550622E+05   7.455993E+03  -3.347460E+04
     425  Z1 = 5.000E-01     9.205068E+04  -5.325707E+03   1.314497E+04
     426  Z1 = 5.000E-01     1.426169E+05   6.783272E+03  -3.151250E+04
     427  Z1 = 5.000E-01     8.409014E+04  -4.652983E+03   1.118288E+04
     428  Z1 = 5.000E-01     1.301715E+05   6.110554E+03  -2.955039E+04
     429  Z1 = 5.000E-01     7.612960E+04  -3.980260E+03   9.220816E+03
     430  Z1 = 5.000E-01     1.177262E+05   5.437843E+03  -2.758827E+04
     431  Z1 = 5.000E-01     6.816905E+04  -3.307561E+03   7.258820E+03
     432  Z1 = 5.000E-01     1.052810E+05   4.765147E+03  -2.562614E+04
     433  Z1 = 5.000E-01     6.020847E+04  -2.634999E+03   5.296894E+03
     434  Z1 = 5.000E-01     9.283577E+04   4.092455E+03  -2.366402E+04
     435  Z1 = 5.000E-01     5.224795E+04  -1.962990E+03   3.334657E+03
     436  Z1 = 5.000E-01     8.039058E+04   3.419634E+03  -2.170208E+04
     437  Z1 = 5.000E-01     4.428846E+04  -1.292757E+03   1.369841E+03
     438  Z1 = 5.000E-01     6.794470E+04   2.746034E+03  -1.974103E+04
     439  Z1 = 5.000E-01     3.633551E+04  -6.266802E+02  -6.069665E+02
     440  Z1 = 5.000E-01     5.549547E+04   2.069344E+03  -1.778277E+04
     441  Z1 = 5.000E-01     2.841373E+04   3.705030E+01  -2.627376E+03
     442  Z1 = 5.000E-01     4.303517E+04   1.383216E+03  -1.583040E+04
     443  Z1 = 5.000E-01     2.060769E+04   7.540667E+02  -4.770916E+03
     444  Z1 = 5.000E-01     3.054760E+04   6.772126E+02  -1.388010E+04
     445  Z1 = 5.000E-01     1.310259E+04   2.000665E+03  -7.060008E+03
     446  Z1 = 5.000E-01     1.803925E+04  -1.646418E+01  -1.185049E+04
     447  Z1 = 5.000E-01     5.734140E+03   6.486737E+03  -7.949604E+03
     448  Z1 = 5.000E-01     5.948792E+03  -1.454740E+02  -9.038891E+03
     449  Z1 = 5.000E-01     3.595604E+05  -1.494022E+04   4.782877E+04
     450  Z1 = 5.000E-01     5.455724E+05   1.636717E+05  -9.839991E+04
     451  Z1 = 5.000E-01     3.688513E+05  -1.719884E+04   5.426024E+04
     452  Z1 = 5.000E-01     5.048958E+05   2.866040E+04  -6.409945E+04
     453  Z1 = 5.000E-01     3.570305E+05  -1.669507E+04   5.308142E+04
     454  Z1 = 5.000E-01     4.871815E+05   1.830025E+04  -6.134593E+04
     455  Z1 = 5.000E-01     3.442209E+05  -1.604494E+04   5.121799E+04
     456  Z1 = 5.000E-01     4.704004E+05   1.731589E+04  -5.979388E+04
     457  Z1 = 5.000E-01     3.318927E+05  -1.540263E+04   4.930813E+04
     458  Z1 = 5.000E-01     4.537318E+05   1.680833E+04  -5.788542E+04
     459  Z1 = 5.000E-01     3.197986E+05  -1.474364E+04   4.737253E+04
     460  Z1 = 5.000E-01     4.371922E+05   1.618721E+04  -5.592397E+04
     461  Z1 = 5.000E-01     3.077594E+05  -1.407318E+04   4.541825E+04
     462  Z1 = 5.000E-01     4.206907E+05   1.552399E+04  -5.397311E+04
     463  Z1 = 5.000E-01     2.957240E+05  -1.339963E+04   4.345686E+04
     464  Z1 = 5.000E-01     4.041829E+05   1.485386E+04  -5.202140E+04
     465  Z1 = 5.000E-01     2.836853E+05  -1.272611E+04   4.149413E+04
     466  Z1 = 5.000E-01     3.876643E+05   1.418246E+04  -5.006431E+04
     467  Z1 = 5.000E-01     2.716446E+05  -1.205304E+04   3.953158E+04
     468  Z1 = 5.000E-01     3.711400E+05   1.351031E+04  -4.810382E+04
     469  Z1 = 5.000E-01     2.596031E+05  -1.138021E+04   3.756929E+04
     470  Z1 = 5.000E-01     3.546139E+05   1.283776E+04  -4.614203E+04
     471  Z1 = 5.000E-01     2.475614E+05  -1.070747E+04   3.560714E+04
     472  Z1 = 5.000E-01     3.380873E+05   1.216506E+04  -4.417991E+04
     473  Z1 = 5.000E-01     2.355197E+05  -1.003475E+04   3.364502E+04
     474  Z1 = 5.000E-01     3.215608E+05   1.149233E+04  -4.221777E+04
     475  Z1 = 5.000E-01     2.234780E+05  -9.362034E+03   3.168292E+04
     476  Z1 = 5.000E-01     3.050342E+05   1.081960E+04  -4.025564E+04
     477  Z1 = 5.000E-01     2.114363E+05  -8.689314E+03   2.972082E+04
     478  Z1 = 5.000E-01     2.885077E+05   1.014688E+04  -3.829353E+04
     479  Z1 = 5.000E-01     1.993946E+05  -8.016594E+03   2.775872E+04
     480  Z1 = 5.000E-01     2.719812E+05   9.474156E+03  -3.633143E+04
     481  Z1 = 5.000E-01     1.873528E+05  -7.343873E+03   2.579661E+04
     482  Z1 = 5.000E-01     2.554546E+05   8.801435E+03  -3.436932E+04
     483  Z1 = 5.000E-01     1.753111E+05  -6.671151E+03   2.383451E+04
     484  Z1 = 5.000E-01     2.389281E+05   8.128714E+03  -3.240722E+04
     485  Z1 = 5.000E-01     1.632694E+05  -5.998430E+03   2.187241E+04
     486  Z1 = 5.000E-01     2.224016E+05   7.455993E+03  -3.044512E+04
     487  Z1 = 5.000E-01     1.512277E+05  -5.325709E+03   1.991030E+04
     488  Z1 = 5.000E-01     2.058751E+05   6.783272E+03  -2.848301E+04
     489  Z1 = 5.000E-01     1.391860E+05  -4.652989E+03   1.794820E+04
     490  Z1 = 5.000E-01     1.893486E+05   6.110551E+03  -2.652091E+04
     491  Z1 = 5.000E-01     1.271443E+05  -3.980272E+03   1.598610E+04
     492  Z1 = 5.000E-01     1.728221E+05   5.437831E+03  -2.455880E+04
     493  Z1 = 5.000E-01     1.151026E+05  -3.307567E+03   1.402403E+04
     494  Z1 = 5.000E-01     1.562956E+05   4.765116E+03  -2.259669E+04
     495  Z1 = 5.000E-01     1.030610E+05  -2.634887E+03   1.206200E+04
     496  Z1 = 5.000E-01     1.397692E+05   4.092413E+03  -2.063458E+04
     497  Z1 = 5.000E-01     9.101937E+04  -1.962205E+03   1.010002E+04
     498  Z1 = 5.000E-01     1.232430E+05   3.419723E+03  -1.867249E+04
     499  Z1 = 5.000E-01     7.897792E+04  -1.289241E+03   8.137733E+03
     500  Z1 = 5.000E-01     1.067167E+05   2.746981E+03  -1.671055E+04
     501  Z1 = 5.000E-01     6.693652E+04  -6.145742E+02   6.172944E+03
     502  Z1 = 5.000E-01     9.018799E+04   2.073781E+03  -1.474920E+04
     503  Z1 = 5.000E-01     5.489480E+04   6.712887E+01   4.196430E+03
     504  Z1 = 5.000E-01     7.364663E+04   1.398459E+03  -1.278949E+04
     505  Z1 = 5.000E-01     4.285156E+04   7.711741E+02   2.178301E+03
     506  Z1 = 5.000E-01     5.705675E+04   7.157136E+02  -1.083238E+04
     507  Z1 = 5.000E-01     3.080095E+04   1.521711E+03   5.179045E+01
     508  Z1 = 5.000E-01     4.032622E+04   1.357356E+01  -8.870512E+03
     509  Z1 = 5.000E-01     1.870945E+04   2.217521E+03  -2.171068E+03
     510  Z1 = 5.000E-01     2.337255E+04  -7.068095E+02  -6.833259E+03
     511  Z1 = 5.000E-01     6.497246E+03   1.682705E+03  -2.971188E+03
     512  Z1 = 5.000E-01     7.427971E+03  -1.166923E+03  -4.206764E+03

1                                                            F O R C E S   A N D   M O M E N T S   I N   S P C   F O R C E S
                                                                                                                                                          PAGE    4
0
      POINT ID.   TYPE          T1             T2             T3             R1             R2             R3
             1      G       0.000000E+00   0.000000E+00   0.000000E+00   0.000000E+00   0.000000E+00   0.000000E+00
            34      G       0.000000E+00   0.000000E+00   0.000000E+00   0.000000E+00   0.000000E+00   0.000000E+00
            67      G       0.000000E+00   0.000000E+00   0.000000E+00   0.000000E+00   0.000000E+00   0.000000E+00
           100      G       0.000000E+00   0.000000E+00   0.000000E+00   0.000000E+00   0.000000E+00   0.000000E+00
           133      G       0.000000E+00   0.000000E+00   0.000000E+00   0.000000E+00   0.000000E+00   0.000000E+00
           166      G       0.000000E+00   0.000000E+00   0.000000E+00   0.000000E+00   0.000000E+00   0.000000E+00
           199      G       0.000000E+00   0.000000E+00   0.000000E+00   0.000000E+00   0.000000E+00   0.000000E+00
           232      G       0.000000E+00   0.000000E+00   0.000000E+00   0.000000E+00   0.000000E+00   0.000000E+00
           265      G       0.000000E+00   0.000000E+00   0.000000E+00   0.000000E+00   0.000000E+00   0.000000E+00

1                                         * * * E N D   O F   J O B * * *
