1
                                              N A S T R A N    F I L E    A N D    S Y S T E M    P A R A M E T E R    E C H O
                                                                                                                                                          PAGE    1


0                                                               * * * * * * * * * * * * * * * *
                                                                 *                             *
                                                                 *        FEM4C SOLUTION      *
                                                                 *                             *
                                                                 * * * * * * * * * * * * * * * *


0SOLUTION SUMMARY:
     PROBLEM TITLE........ FEM4C HIGH PERFORMANCE FINITE ELEMENT ANALYSIS
     SOLUTION TYPE........ STATIC ANALYSIS (SOL 101)
     ANALYSIS DATE........ Sat Oct 11 01:50:37 2025
     PROBLEM SIZE......... 1105 NODES, 512 ELEMENTS, 2210 DOF

1                                                                          D I S P L A C E M E N T   V E C T O R
                                                                                                                                                          PAGE    2
0
      POINT ID.   TYPE          T1             T2             T3             R1             R2             R3
             1      G       0.000000E+00   0.000000E+00   0.000000E+00   0.000000E+00   0.000000E+00   0.000000E+00
             2      G      -8.747565E-08  -4.586064E-08   0.000000E+00   0.000000E+00   0.000000E+00   0.000000E+00
             3      G      -1.719574E-07  -1.303722E-07   0.000000E+00   0.000000E+00   0.000000E+00   0.000000E+00
             4      G      -2.542576E-07  -2.670223E-07   0.000000E+00   0.000000E+00   0.000000E+00   0.000000E+00
             5      G      -3.337850E-07  -4.543097E-07   0.000000E+00   0.000000E+00   0.000000E+00   0.000000E+00
             6      G      -4.105163E-07  -6.904317E-07   0.000000E+00   0.000000E+00   0.000000E+00   0.000000E+00
             7      G      -4.844559E-07  -9.736370E-07   0.000000E+00   0.000000E+00   0.000000E+00   0.000000E+00
             8      G      -5.556054E-07  -1.302182E-06   0.000000E+00   0.000000E+00   0.000000E+00   0.000000E+00
             9      G      -6.239647E-07  -1.674324E-06   0.000000E+00   0.000000E+00   0.000000E+00   0.000000E+00
            10      G      -6.895339E-07  -2.088318E-06   0.000000E+00   0.000000E+00   0.000000E+00   0.000000E+00
            11      G      -7.523129E-07  -2.542421E-06   0.000000E+00   0.000000E+00   0.000000E+00   0.000000E+00
            12      G      -8.123017E-07  -3.034889E-06   0.000000E+00   0.000000E+00   0.000000E+00   0.000000E+00
            13      G      -8.695004E-07  -3.563979E-06   0.000000E+00   0.000000E+00   0.000000E+00   0.000000E+00
            14      G      -9.239089E-07  -4.127945E-06   0.000000E+00   0.000000E+00   0.000000E+00   0.000000E+00
            15      G      -9.755272E-07  -4.725045E-06   0.000000E+00   0.000000E+00   0.000000E+00   0.000000E+00
            16      G      -1.024355E-06  -5.353534E-06   0.000000E+00   0.000000E+00   0.000000E+00   0.000000E+00
            17      G      -1.070393E-06  -6.011669E-06   0.000000E+00   0.000000E+00   0.000000E+00   0.000000E+00
            18      G      -1.113641E-06  -6.697706E-06   0.000000E+00   0.000000E+00   0.000000E+00   0.000000E+00
            19      G      -1.154099E-06  -7.409901E-06   0.000000E+00   0.000000E+00   0.000000E+00   0.000000E+00
            20      G      -1.191766E-06  -8.146509E-06   0.000000E+00   0.000000E+00   0.000000E+00   0.000000E+00
            21      G      -1.226643E-06  -8.905788E-06   0.000000E+00   0.000000E+00   0.000000E+00   0.000000E+00
            22      G      -1.258730E-06  -9.685993E-06   0.000000E+00   0.000000E+00   0.000000E+00   0.000000E+00
            23      G      -1.288027E-06  -1.048538E-05   0.000000E+00   0.000000E+00   0.000000E+00   0.000000E+00
            24      G      -1.314534E-06  -1.130221E-05   0.000000E+00   0.000000E+00   0.000000E+00   0.000000E+00
            25      G      -1.338250E-06  -1.213473E-05   0.000000E+00   0.000000E+00   0.000000E+00   0.000000E+00
            26      G      -1.359177E-06  -1.298120E-05   0.000000E+00   0.000000E+00   0.000000E+00   0.000000E+00
            27      G      -1.377313E-06  -1.383988E-05   0.000000E+00   0.000000E+00   0.000000E+00   0.000000E+00
            28      G      -1.392659E-06  -1.470902E-05   0.000000E+00   0.000000E+00   0.000000E+00   0.000000E+00
            29      G      -1.405215E-06  -1.558688E-05   0.000000E+00   0.000000E+00   0.000000E+00   0.000000E+00
            30      G      -1.414980E-06  -1.647172E-05   0.000000E+00   0.000000E+00   0.000000E+00   0.000000E+00
            31      G      -1.421960E-06  -1.736178E-05   0.000000E+00   0.000000E+00   0.000000E+00   0.000000E+00
            32      G      -1.426274E-06  -1.825533E-05   0.000000E+00   0.000000E+00   0.000000E+00   0.000000E+00
            33      G      -1.428251E-06  -1.915201E-05   0.000000E+00   0.000000E+00   0.000000E+00   0.000000E+00
            34      G       0.000000E+00   0.000000E+00   0.000000E+00   0.000000E+00   0.000000E+00   0.000000E+00
            35      G      -6.433544E-08  -3.690812E-08   0.000000E+00   0.000000E+00   0.000000E+00   0.000000E+00
            36      G      -1.280701E-07  -1.215765E-07   0.000000E+00   0.000000E+00   0.000000E+00   0.000000E+00
            37      G      -1.897969E-07  -2.585324E-07   0.000000E+00   0.000000E+00   0.000000E+00   0.000000E+00
            38      G      -2.494404E-07  -4.461140E-07   0.000000E+00   0.000000E+00   0.000000E+00   0.000000E+00
            39      G      -3.069886E-07  -6.825292E-07   0.000000E+00   0.000000E+00   0.000000E+00   0.000000E+00
            40      G      -3.624434E-07  -9.660276E-07   0.000000E+00   0.000000E+00   0.000000E+00   0.000000E+00
            41      G      -4.158055E-07  -1.294866E-06   0.000000E+00   0.000000E+00   0.000000E+00   0.000000E+00
            42      G      -4.670751E-07  -1.667300E-06   0.000000E+00   0.000000E+00   0.000000E+00   0.000000E+00
            43      G      -5.162520E-07  -2.081588E-06   0.000000E+00   0.000000E+00   0.000000E+00   0.000000E+00
            44      G      -5.633362E-07  -2.535984E-06   0.000000E+00   0.000000E+00   0.000000E+00   0.000000E+00
            45      G      -6.083278E-07  -3.028745E-06   0.000000E+00   0.000000E+00   0.000000E+00   0.000000E+00
            46      G      -6.512268E-07  -3.558127E-06   0.000000E+00   0.000000E+00   0.000000E+00   0.000000E+00
            47      G      -6.920332E-07  -4.122386E-06   0.000000E+00   0.000000E+00   0.000000E+00   0.000000E+00
            48      G      -7.307469E-07  -4.719779E-06   0.000000E+00   0.000000E+00   0.000000E+00   0.000000E+00
            49      G      -7.673680E-07  -5.348561E-06   0.000000E+00   0.000000E+00   0.000000E+00   0.000000E+00
            50      G      -8.018965E-07  -6.006989E-06   0.000000E+00   0.000000E+00   0.000000E+00   0.000000E+00
            51      G      -8.343323E-07  -6.693319E-06   0.000000E+00   0.000000E+00   0.000000E+00   0.000000E+00
            52      G      -8.646755E-07  -7.405807E-06   0.000000E+00   0.000000E+00   0.000000E+00   0.000000E+00
            53      G      -8.929261E-07  -8.142708E-06   0.000000E+00   0.000000E+00   0.000000E+00   0.000000E+00
            54      G      -9.190840E-07  -8.902280E-06   0.000000E+00   0.000000E+00   0.000000E+00   0.000000E+00
            55      G      -9.431493E-07  -9.682779E-06   0.000000E+00   0.000000E+00   0.000000E+00   0.000000E+00
            56      G      -9.651219E-07  -1.048246E-05   0.000000E+00   0.000000E+00   0.000000E+00   0.000000E+00
            57      G      -9.850020E-07  -1.129958E-05   0.000000E+00   0.000000E+00   0.000000E+00   0.000000E+00
            58      G      -1.002789E-06  -1.213239E-05   0.000000E+00   0.000000E+00   0.000000E+00   0.000000E+00
            59      G      -1.018484E-06  -1.297916E-05   0.000000E+00   0.000000E+00   0.000000E+00   0.000000E+00
            60      G      -1.032086E-06  -1.383813E-05   0.000000E+00   0.000000E+00   0.000000E+00   0.000000E+00
            61      G      -1.043596E-06  -1.470756E-05   0.000000E+00   0.000000E+00   0.000000E+00   0.000000E+00
            62      G      -1.053013E-06  -1.558572E-05   0.000000E+00   0.000000E+00   0.000000E+00   0.000000E+00
            63      G      -1.060337E-06  -1.647085E-05   0.000000E+00   0.000000E+00   0.000000E+00   0.000000E+00
            64      G      -1.065572E-06  -1.736120E-05   0.000000E+00   0.000000E+00   0.000000E+00   0.000000E+00
            65      G      -1.068714E-06  -1.825505E-05   0.000000E+00   0.000000E+00   0.000000E+00   0.000000E+00
            66      G      -1.069792E-06  -1.915156E-05   0.000000E+00   0.000000E+00   0.000000E+00   0.000000E+00
            67      G       0.000000E+00   0.000000E+00   0.000000E+00   0.000000E+00   0.000000E+00   0.000000E+00
            68      G      -4.191740E-08  -3.013624E-08   0.000000E+00   0.000000E+00   0.000000E+00   0.000000E+00
            69      G      -8.490457E-08  -1.152529E-07   0.000000E+00   0.000000E+00   0.000000E+00   0.000000E+00
            70      G      -1.261212E-07  -2.524635E-07   0.000000E+00   0.000000E+00   0.000000E+00   0.000000E+00
            71      G      -1.658830E-07  -4.402595E-07   0.000000E+00   0.000000E+00   0.000000E+00   0.000000E+00
            72      G      -2.042475E-07  -6.768839E-07   0.000000E+00   0.000000E+00   0.000000E+00   0.000000E+00
            73      G      -2.412173E-07  -9.605914E-07   0.000000E+00   0.000000E+00   0.000000E+00   0.000000E+00
            74      G      -2.767921E-07  -1.289639E-06   0.000000E+00   0.000000E+00   0.000000E+00   0.000000E+00
            75      G      -3.109717E-07  -1.662283E-06   0.000000E+00   0.000000E+00   0.000000E+00   0.000000E+00
            76      G      -3.437563E-07  -2.076779E-06   0.000000E+00   0.000000E+00   0.000000E+00   0.000000E+00
            77      G      -3.751459E-07  -2.531385E-06   0.000000E+00   0.000000E+00   0.000000E+00   0.000000E+00
            78      G      -4.051403E-07  -3.024355E-06   0.000000E+00   0.000000E+00   0.000000E+00   0.000000E+00
            79      G      -4.337396E-07  -3.553946E-06   0.000000E+00   0.000000E+00   0.000000E+00   0.000000E+00
            80      G      -4.609438E-07  -4.118415E-06   0.000000E+00   0.000000E+00   0.000000E+00   0.000000E+00
            81      G      -4.867530E-07  -4.716017E-06   0.000000E+00   0.000000E+00   0.000000E+00   0.000000E+00
            82      G      -5.111671E-07  -5.345009E-06   0.000000E+00   0.000000E+00   0.000000E+00   0.000000E+00
            83      G      -5.341860E-07  -6.003646E-06   0.000000E+00   0.000000E+00   0.000000E+00   0.000000E+00
            84      G      -5.558099E-07  -6.690185E-06   0.000000E+00   0.000000E+00   0.000000E+00   0.000000E+00
            85      G      -5.760387E-07  -7.402882E-06   0.000000E+00   0.000000E+00   0.000000E+00   0.000000E+00
            86      G      -5.948724E-07  -8.139993E-06   0.000000E+00   0.000000E+00   0.000000E+00   0.000000E+00
            87      G      -6.123110E-07  -8.899774E-06   0.000000E+00   0.000000E+00   0.000000E+00   0.000000E+00
            88      G      -6.283546E-07  -9.680481E-06   0.000000E+00   0.000000E+00   0.000000E+00   0.000000E+00
            89      G      -6.430030E-07  -1.048037E-05   0.000000E+00   0.000000E+00   0.000000E+00   0.000000E+00
            90      G      -6.562563E-07  -1.129770E-05   0.000000E+00   0.000000E+00   0.000000E+00   0.000000E+00
            91      G      -6.681146E-07  -1.213072E-05   0.000000E+00   0.000000E+00   0.000000E+00   0.000000E+00
            92      G      -6.785778E-07  -1.297770E-05   0.000000E+00   0.000000E+00   0.000000E+00   0.000000E+00
            93      G      -6.876459E-07  -1.383688E-05   0.000000E+00   0.000000E+00   0.000000E+00   0.000000E+00
            94      G      -6.953189E-07  -1.470652E-05   0.000000E+00   0.000000E+00   0.000000E+00   0.000000E+00
            95      G      -7.015968E-07  -1.558489E-05   0.000000E+00   0.000000E+00   0.000000E+00   0.000000E+00
            96      G      -7.064794E-07  -1.647023E-05   0.000000E+00   0.000000E+00   0.000000E+00   0.000000E+00
            97      G      -7.099582E-07  -1.736079E-05   0.000000E+00   0.000000E+00   0.000000E+00   0.000000E+00
            98      G      -7.119554E-07  -1.825489E-05   0.000000E+00   0.000000E+00   0.000000E+00   0.000000E+00
            99      G      -7.125901E-07  -1.915085E-05   0.000000E+00   0.000000E+00   0.000000E+00   0.000000E+00
           100      G       0.000000E+00   0.000000E+00   0.000000E+00   0.000000E+00   0.000000E+00   0.000000E+00
           101      G      -2.072201E-08  -2.625981E-08   0.000000E+00   0.000000E+00   0.000000E+00   0.000000E+00
           102      G      -4.232571E-08  -1.114246E-07   0.000000E+00   0.000000E+00   0.000000E+00   0.000000E+00
           103      G      -6.296049E-08  -2.488189E-07   0.000000E+00   0.000000E+00   0.000000E+00   0.000000E+00
           104      G      -8.283907E-08  -4.367463E-07   0.000000E+00   0.000000E+00   0.000000E+00   0.000000E+00
           105      G      -1.020201E-07  -6.734956E-07   0.000000E+00   0.000000E+00   0.000000E+00   0.000000E+00
           106      G      -1.205048E-07  -9.573284E-07   0.000000E+00   0.000000E+00   0.000000E+00   0.000000E+00
           107      G      -1.382923E-07  -1.286501E-06   0.000000E+00   0.000000E+00   0.000000E+00   0.000000E+00
           108      G      -1.553821E-07  -1.659271E-06   0.000000E+00   0.000000E+00   0.000000E+00   0.000000E+00
           109      G      -1.717744E-07  -2.073893E-06   0.000000E+00   0.000000E+00   0.000000E+00   0.000000E+00
           110      G      -1.874692E-07  -2.528624E-06   0.000000E+00   0.000000E+00   0.000000E+00   0.000000E+00
           111      G      -2.024664E-07  -3.021720E-06   0.000000E+00   0.000000E+00   0.000000E+00   0.000000E+00
           112      G      -2.167661E-07  -3.551437E-06   0.000000E+00   0.000000E+00   0.000000E+00   0.000000E+00
           113      G      -2.303682E-07  -4.116031E-06   0.000000E+00   0.000000E+00   0.000000E+00   0.000000E+00
           114      G      -2.432728E-07  -4.713759E-06   0.000000E+00   0.000000E+00   0.000000E+00   0.000000E+00
           115      G      -2.554798E-07  -5.342876E-06   0.000000E+00   0.000000E+00   0.000000E+00   0.000000E+00
           116      G      -2.669893E-07  -6.001638E-06   0.000000E+00   0.000000E+00   0.000000E+00   0.000000E+00
           117      G      -2.778012E-07  -6.688303E-06   0.000000E+00   0.000000E+00   0.000000E+00   0.000000E+00
           118      G      -2.879156E-07  -7.401125E-06   0.000000E+00   0.000000E+00   0.000000E+00   0.000000E+00
           119      G      -2.973325E-07  -8.138362E-06   0.000000E+00   0.000000E+00   0.000000E+00   0.000000E+00
           120      G      -3.060518E-07  -8.898269E-06   0.000000E+00   0.000000E+00   0.000000E+00   0.000000E+00
           121      G      -3.140735E-07  -9.679102E-06   0.000000E+00   0.000000E+00   0.000000E+00   0.000000E+00
           122      G      -3.213978E-07  -1.047912E-05   0.000000E+00   0.000000E+00   0.000000E+00   0.000000E+00
           123      G      -3.280244E-07  -1.129657E-05   0.000000E+00   0.000000E+00   0.000000E+00   0.000000E+00
           124      G      -3.339536E-07  -1.212972E-05   0.000000E+00   0.000000E+00   0.000000E+00   0.000000E+00
           125      G      -3.391852E-07  -1.297682E-05   0.000000E+00   0.000000E+00   0.000000E+00   0.000000E+00
           126      G      -3.437192E-07  -1.383613E-05   0.000000E+00   0.000000E+00   0.000000E+00   0.000000E+00
           127      G      -3.475557E-07  -1.470590E-05   0.000000E+00   0.000000E+00   0.000000E+00   0.000000E+00
           128      G      -3.506946E-07  -1.558439E-05   0.000000E+00   0.000000E+00   0.000000E+00   0.000000E+00
           129      G      -3.531354E-07  -1.646985E-05   0.000000E+00   0.000000E+00   0.000000E+00   0.000000E+00
           130      G      -3.548680E-07  -1.736056E-05   0.000000E+00   0.000000E+00   0.000000E+00   0.000000E+00
           131      G      -3.558333E-07  -1.825481E-05   0.000000E+00   0.000000E+00   0.000000E+00   0.000000E+00
           132      G      -3.561375E-07  -1.915029E-05   0.000000E+00   0.000000E+00   0.000000E+00   0.000000E+00
           133      G       0.000000E+00   0.000000E+00   0.000000E+00   0.000000E+00   0.000000E+00   0.000000E+00
           134      G      -3.685684E-11  -2.498338E-08   0.000000E+00   0.000000E+00   0.000000E+00   0.000000E+00
           135      G      -7.095236E-11  -1.101277E-07   0.000000E+00   0.000000E+00   0.000000E+00   0.000000E+00
           136      G      -5.826439E-11  -2.476065E-07   0.000000E+00   0.000000E+00   0.000000E+00   0.000000E+00
           137      G      -5.119054E-11  -4.355765E-07   0.000000E+00   0.000000E+00   0.000000E+00   0.000000E+00
           138      G      -4.948819E-11  -6.723666E-07   0.000000E+00   0.000000E+00   0.000000E+00   0.000000E+00
           139      G      -4.928354E-11  -9.562409E-07   0.000000E+00   0.000000E+00   0.000000E+00   0.000000E+00
           140      G      -4.932511E-11  -1.285456E-06   0.000000E+00   0.000000E+00   0.000000E+00   0.000000E+00
           141      G      -4.935690E-11  -1.658267E-06   0.000000E+00   0.000000E+00   0.000000E+00   0.000000E+00
           142      G      -4.936681E-11  -2.072931E-06   0.000000E+00   0.000000E+00   0.000000E+00   0.000000E+00
           143      G      -4.936855E-11  -2.527704E-06   0.000000E+00   0.000000E+00   0.000000E+00   0.000000E+00
           144      G      -4.936854E-11  -3.020841E-06   0.000000E+00   0.000000E+00   0.000000E+00   0.000000E+00
           145      G      -4.936842E-11  -3.550600E-06   0.000000E+00   0.000000E+00   0.000000E+00   0.000000E+00
           146      G      -4.936836E-11  -4.115236E-06   0.000000E+00   0.000000E+00   0.000000E+00   0.000000E+00
           147      G      -4.936835E-11  -4.713006E-06   0.000000E+00   0.000000E+00   0.000000E+00   0.000000E+00
           148      G      -4.936835E-11  -5.342165E-06   0.000000E+00   0.000000E+00   0.000000E+00   0.000000E+00
           149      G      -4.936835E-11  -6.000969E-06   0.000000E+00   0.000000E+00   0.000000E+00   0.000000E+00
           150      G      -4.936835E-11  -6.687676E-06   0.000000E+00   0.000000E+00   0.000000E+00   0.000000E+00
           151      G      -4.936835E-11  -7.400540E-06   0.000000E+00   0.000000E+00   0.000000E+00   0.000000E+00
           152      G      -4.936835E-11  -8.137818E-06   0.000000E+00   0.000000E+00   0.000000E+00   0.000000E+00
           153      G      -4.936835E-11  -8.897767E-06   0.000000E+00   0.000000E+00   0.000000E+00   0.000000E+00
           154      G      -4.936834E-11  -9.678642E-06   0.000000E+00   0.000000E+00   0.000000E+00   0.000000E+00
           155      G      -4.936834E-11  -1.047870E-05   0.000000E+00   0.000000E+00   0.000000E+00   0.000000E+00
           156      G      -4.936845E-11  -1.129620E-05   0.000000E+00   0.000000E+00   0.000000E+00   0.000000E+00
           157      G      -4.936903E-11  -1.212939E-05   0.000000E+00   0.000000E+00   0.000000E+00   0.000000E+00
           158      G      -4.937081E-11  -1.297653E-05   0.000000E+00   0.000000E+00   0.000000E+00   0.000000E+00
           159      G      -4.937277E-11  -1.383588E-05   0.000000E+00   0.000000E+00   0.000000E+00   0.000000E+00
           160      G      -4.935941E-11  -1.470569E-05   0.000000E+00   0.000000E+00   0.000000E+00   0.000000E+00
           161      G      -4.926218E-11  -1.558422E-05   0.000000E+00   0.000000E+00   0.000000E+00   0.000000E+00
           162      G      -4.888898E-11  -1.646973E-05   0.000000E+00   0.000000E+00   0.000000E+00   0.000000E+00
           163      G      -4.798411E-11  -1.736048E-05   0.000000E+00   0.000000E+00   0.000000E+00   0.000000E+00
           164      G      -4.877544E-11  -1.825477E-05   0.000000E+00   0.000000E+00   0.000000E+00   0.000000E+00
           165      G      -5.068979E-11  -1.915009E-05   0.000000E+00   0.000000E+00   0.000000E+00   0.000000E+00
           166      G       0.000000E+00   0.000000E+00   0.000000E+00   0.000000E+00   0.000000E+00   0.000000E+00
           167      G       2.063790E-08  -2.615531E-08   0.000000E+00   0.000000E+00   0.000000E+00   0.000000E+00
           168      G       4.218601E-08  -1.114068E-07   0.000000E+00   0.000000E+00   0.000000E+00   0.000000E+00
           169      G       6.284827E-08  -2.488291E-07   0.000000E+00   0.000000E+00   0.000000E+00   0.000000E+00
           170      G       8.273759E-08  -4.367506E-07   0.000000E+00   0.000000E+00   0.000000E+00   0.000000E+00
           171      G       1.019212E-07  -6.734976E-07   0.000000E+00   0.000000E+00   0.000000E+00   0.000000E+00
           172      G       1.204062E-07  -9.573298E-07   0.000000E+00   0.000000E+00   0.000000E+00   0.000000E+00
           173      G       1.381936E-07  -1.286503E-06   0.000000E+00   0.000000E+00   0.000000E+00   0.000000E+00
           174      G       1.552834E-07  -1.659272E-06   0.000000E+00   0.000000E+00   0.000000E+00   0.000000E+00
           175      G       1.716757E-07  -2.073894E-06   0.000000E+00   0.000000E+00   0.000000E+00   0.000000E+00
           176      G       1.873705E-07  -2.528625E-06   0.000000E+00   0.000000E+00   0.000000E+00   0.000000E+00
           177      G       2.023677E-07  -3.021721E-06   0.000000E+00   0.000000E+00   0.000000E+00   0.000000E+00
           178      G       2.166673E-07  -3.551438E-06   0.000000E+00   0.000000E+00   0.000000E+00   0.000000E+00
           179      G       2.302694E-07  -4.116032E-06   0.000000E+00   0.000000E+00   0.000000E+00   0.000000E+00
           180      G       2.431740E-07  -4.713760E-06   0.000000E+00   0.000000E+00   0.000000E+00   0.000000E+00
           181      G       2.553811E-07  -5.342877E-06   0.000000E+00   0.000000E+00   0.000000E+00   0.000000E+00
           182      G       2.668905E-07  -6.001640E-06   0.000000E+00   0.000000E+00   0.000000E+00   0.000000E+00
           183      G       2.777025E-07  -6.688304E-06   0.000000E+00   0.000000E+00   0.000000E+00   0.000000E+00
           184      G       2.878169E-07  -7.401127E-06   0.000000E+00   0.000000E+00   0.000000E+00   0.000000E+00
           185      G       2.972337E-07  -8.138363E-06   0.000000E+00   0.000000E+00   0.000000E+00   0.000000E+00
           186      G       3.059530E-07  -8.898270E-06   0.000000E+00   0.000000E+00   0.000000E+00   0.000000E+00
           187      G       3.139748E-07  -9.679103E-06   0.000000E+00   0.000000E+00   0.000000E+00   0.000000E+00
           188      G       3.212990E-07  -1.047912E-05   0.000000E+00   0.000000E+00   0.000000E+00   0.000000E+00
           189      G       3.279257E-07  -1.129657E-05   0.000000E+00   0.000000E+00   0.000000E+00   0.000000E+00
           190      G       3.338548E-07  -1.212972E-05   0.000000E+00   0.000000E+00   0.000000E+00   0.000000E+00
           191      G       3.390864E-07  -1.297682E-05   0.000000E+00   0.000000E+00   0.000000E+00   0.000000E+00
           192      G       3.436204E-07  -1.383613E-05   0.000000E+00   0.000000E+00   0.000000E+00   0.000000E+00
           193      G       3.474570E-07  -1.470590E-05   0.000000E+00   0.000000E+00   0.000000E+00   0.000000E+00
           194      G       3.505960E-07  -1.558439E-05   0.000000E+00   0.000000E+00   0.000000E+00   0.000000E+00
           195      G       3.530374E-07  -1.646985E-05   0.000000E+00   0.000000E+00   0.000000E+00   0.000000E+00
           196      G       3.547713E-07  -1.736056E-05   0.000000E+00   0.000000E+00   0.000000E+00   0.000000E+00
           197      G       3.557366E-07  -1.825480E-05   0.000000E+00   0.000000E+00   0.000000E+00   0.000000E+00
           198      G       3.560366E-07  -1.915030E-05   0.000000E+00   0.000000E+00   0.000000E+00   0.000000E+00
           199      G       0.000000E+00   0.000000E+00   0.000000E+00   0.000000E+00   0.000000E+00   0.000000E+00
           200      G       4.177287E-08  -2.985724E-08   0.000000E+00   0.000000E+00   0.000000E+00   0.000000E+00
           201      G       8.479218E-08  -1.152533E-07   0.000000E+00   0.000000E+00   0.000000E+00   0.000000E+00
           202      G       1.260204E-07  -2.524807E-07   0.000000E+00   0.000000E+00   0.000000E+00   0.000000E+00
           203      G       1.657837E-07  -4.402688E-07   0.000000E+00   0.000000E+00   0.000000E+00   0.000000E+00
           204      G       2.041487E-07  -6.768894E-07   0.000000E+00   0.000000E+00   0.000000E+00   0.000000E+00
           205      G       2.411186E-07  -9.605958E-07   0.000000E+00   0.000000E+00   0.000000E+00   0.000000E+00
           206      G       2.766933E-07  -1.289643E-06   0.000000E+00   0.000000E+00   0.000000E+00   0.000000E+00
           207      G       3.108730E-07  -1.662287E-06   0.000000E+00   0.000000E+00   0.000000E+00   0.000000E+00
           208      G       3.436576E-07  -2.076783E-06   0.000000E+00   0.000000E+00   0.000000E+00   0.000000E+00
           209      G       3.750471E-07  -2.531389E-06   0.000000E+00   0.000000E+00   0.000000E+00   0.000000E+00
           210      G       4.050415E-07  -3.024359E-06   0.000000E+00   0.000000E+00   0.000000E+00   0.000000E+00
           211      G       4.336409E-07  -3.553951E-06   0.000000E+00   0.000000E+00   0.000000E+00   0.000000E+00
           212      G       4.608451E-07  -4.118419E-06   0.000000E+00   0.000000E+00   0.000000E+00   0.000000E+00
           213      G       4.866543E-07  -4.716021E-06   0.000000E+00   0.000000E+00   0.000000E+00   0.000000E+00
           214      G       5.110683E-07  -5.345013E-06   0.000000E+00   0.000000E+00   0.000000E+00   0.000000E+00
           215      G       5.340873E-07  -6.003650E-06   0.000000E+00   0.000000E+00   0.000000E+00   0.000000E+00
           216      G       5.557112E-07  -6.690189E-06   0.000000E+00   0.000000E+00   0.000000E+00   0.000000E+00
           217      G       5.759400E-07  -7.402886E-06   0.000000E+00   0.000000E+00   0.000000E+00   0.000000E+00
           218      G       5.947737E-07  -8.139997E-06   0.000000E+00   0.000000E+00   0.000000E+00   0.000000E+00
           219      G       6.122123E-07  -8.899778E-06   0.000000E+00   0.000000E+00   0.000000E+00   0.000000E+00
           220      G       6.282558E-07  -9.680486E-06   0.000000E+00   0.000000E+00   0.000000E+00   0.000000E+00
           221      G       6.429043E-07  -1.048038E-05   0.000000E+00   0.000000E+00   0.000000E+00   0.000000E+00
           222      G       6.561576E-07  -1.129770E-05   0.000000E+00   0.000000E+00   0.000000E+00   0.000000E+00
           223      G       6.680159E-07  -1.213073E-05   0.000000E+00   0.000000E+00   0.000000E+00   0.000000E+00
           224      G       6.784790E-07  -1.297770E-05   0.000000E+00   0.000000E+00   0.000000E+00   0.000000E+00
           225      G       6.875471E-07  -1.383688E-05   0.000000E+00   0.000000E+00   0.000000E+00   0.000000E+00
           226      G       6.952201E-07  -1.470653E-05   0.000000E+00   0.000000E+00   0.000000E+00   0.000000E+00
           227      G       7.014981E-07  -1.558489E-05   0.000000E+00   0.000000E+00   0.000000E+00   0.000000E+00
           228      G       7.063808E-07  -1.647023E-05   0.000000E+00   0.000000E+00   0.000000E+00   0.000000E+00
           229      G       7.098594E-07  -1.736080E-05   0.000000E+00   0.000000E+00   0.000000E+00   0.000000E+00
           230      G       7.118612E-07  -1.825488E-05   0.000000E+00   0.000000E+00   0.000000E+00   0.000000E+00
           231      G       7.124899E-07  -1.915087E-05   0.000000E+00   0.000000E+00   0.000000E+00   0.000000E+00
           232      G       0.000000E+00   0.000000E+00   0.000000E+00   0.000000E+00   0.000000E+00   0.000000E+00
           233      G       6.397821E-08  -3.634291E-08   0.000000E+00   0.000000E+00   0.000000E+00   0.000000E+00
           234      G       1.280141E-07  -1.216005E-07   0.000000E+00   0.000000E+00   0.000000E+00   0.000000E+00
           235      G       1.897070E-07  -2.585552E-07   0.000000E+00   0.000000E+00   0.000000E+00   0.000000E+00
           236      G       2.493432E-07  -4.461331E-07   0.000000E+00   0.000000E+00   0.000000E+00   0.000000E+00
           237      G       3.068898E-07  -6.825442E-07   0.000000E+00   0.000000E+00   0.000000E+00   0.000000E+00
           238      G       3.623446E-07  -9.660413E-07   0.000000E+00   0.000000E+00   0.000000E+00   0.000000E+00
           239      G       4.157068E-07  -1.294879E-06   0.000000E+00   0.000000E+00   0.000000E+00   0.000000E+00
           240      G       4.669763E-07  -1.667314E-06   0.000000E+00   0.000000E+00   0.000000E+00   0.000000E+00
           241      G       5.161532E-07  -2.081601E-06   0.000000E+00   0.000000E+00   0.000000E+00   0.000000E+00
           242      G       5.632375E-07  -2.535997E-06   0.000000E+00   0.000000E+00   0.000000E+00   0.000000E+00
           243      G       6.082291E-07  -3.028758E-06   0.000000E+00   0.000000E+00   0.000000E+00   0.000000E+00
           244      G       6.511281E-07  -3.558141E-06   0.000000E+00   0.000000E+00   0.000000E+00   0.000000E+00
           245      G       6.919345E-07  -4.122400E-06   0.000000E+00   0.000000E+00   0.000000E+00   0.000000E+00
           246      G       7.306482E-07  -4.719793E-06   0.000000E+00   0.000000E+00   0.000000E+00   0.000000E+00
           247      G       7.672693E-07  -5.348575E-06   0.000000E+00   0.000000E+00   0.000000E+00   0.000000E+00
           248      G       8.017977E-07  -6.007003E-06   0.000000E+00   0.000000E+00   0.000000E+00   0.000000E+00
           249      G       8.342336E-07  -6.693333E-06   0.000000E+00   0.000000E+00   0.000000E+00   0.000000E+00
           250      G       8.645768E-07  -7.405820E-06   0.000000E+00   0.000000E+00   0.000000E+00   0.000000E+00
           251      G       8.928273E-07  -8.142722E-06   0.000000E+00   0.000000E+00   0.000000E+00   0.000000E+00
           252      G       9.189852E-07  -8.902294E-06   0.000000E+00   0.000000E+00   0.000000E+00   0.000000E+00
           253      G       9.430505E-07  -9.682792E-06   0.000000E+00   0.000000E+00   0.000000E+00   0.000000E+00
           254      G       9.650232E-07  -1.048247E-05   0.000000E+00   0.000000E+00   0.000000E+00   0.000000E+00
           255      G       9.849032E-07  -1.129959E-05   0.000000E+00   0.000000E+00   0.000000E+00   0.000000E+00
           256      G       1.002691E-06  -1.213241E-05   0.000000E+00   0.000000E+00   0.000000E+00   0.000000E+00
           257      G       1.018385E-06  -1.297917E-05   0.000000E+00   0.000000E+00   0.000000E+00   0.000000E+00
           258      G       1.031987E-06  -1.383814E-05   0.000000E+00   0.000000E+00   0.000000E+00   0.000000E+00
           259      G       1.043497E-06  -1.470758E-05   0.000000E+00   0.000000E+00   0.000000E+00   0.000000E+00
           260      G       1.052914E-06  -1.558573E-05   0.000000E+00   0.000000E+00   0.000000E+00   0.000000E+00
           261      G       1.060238E-06  -1.647086E-05   0.000000E+00   0.000000E+00   0.000000E+00   0.000000E+00
           262      G       1.065471E-06  -1.736121E-05   0.000000E+00   0.000000E+00   0.000000E+00   0.000000E+00
           263      G       1.068616E-06  -1.825505E-05   0.000000E+00   0.000000E+00   0.000000E+00   0.000000E+00
           264      G       1.069689E-06  -1.915162E-05   0.000000E+00   0.000000E+00   0.000000E+00   0.000000E+00
           265      G       0.000000E+00   0.000000E+00   0.000000E+00   0.000000E+00   0.000000E+00   0.000000E+00
           266      G       8.798067E-08  -4.570740E-08   0.000000E+00   0.000000E+00   0.000000E+00   0.000000E+00
           267      G       1.719148E-07  -1.303629E-07   0.000000E+00   0.000000E+00   0.000000E+00   0.000000E+00
           268      G       2.541744E-07  -2.670574E-07   0.000000E+00   0.000000E+00   0.000000E+00   0.000000E+00
           269      G       3.336874E-07  -4.543438E-07   0.000000E+00   0.000000E+00   0.000000E+00   0.000000E+00
           270      G       4.104169E-07  -6.904621E-07   0.000000E+00   0.000000E+00   0.000000E+00   0.000000E+00
           271      G       4.843568E-07  -9.736662E-07   0.000000E+00   0.000000E+00   0.000000E+00   0.000000E+00
           272      G       5.555065E-07  -1.302211E-06   0.000000E+00   0.000000E+00   0.000000E+00   0.000000E+00
           273      G       6.238659E-07  -1.674353E-06   0.000000E+00   0.000000E+00   0.000000E+00   0.000000E+00
           274      G       6.894351E-07  -2.088347E-06   0.000000E+00   0.000000E+00   0.000000E+00   0.000000E+00
           275      G       7.522142E-07  -2.542450E-06   0.000000E+00   0.000000E+00   0.000000E+00   0.000000E+00
           276      G       8.122030E-07  -3.034918E-06   0.000000E+00   0.000000E+00   0.000000E+00   0.000000E+00
           277      G       8.694017E-07  -3.564008E-06   0.000000E+00   0.000000E+00   0.000000E+00   0.000000E+00
           278      G       9.238101E-07  -4.127974E-06   0.000000E+00   0.000000E+00   0.000000E+00   0.000000E+00
           279      G       9.754284E-07  -4.725074E-06   0.000000E+00   0.000000E+00   0.000000E+00   0.000000E+00
           280      G       1.024257E-06  -5.353563E-06   0.000000E+00   0.000000E+00   0.000000E+00   0.000000E+00
           281      G       1.070295E-06  -6.011698E-06   0.000000E+00   0.000000E+00   0.000000E+00   0.000000E+00
           282      G       1.113542E-06  -6.697735E-06   0.000000E+00   0.000000E+00   0.000000E+00   0.000000E+00
           283      G       1.154000E-06  -7.409929E-06   0.000000E+00   0.000000E+00   0.000000E+00   0.000000E+00
           284      G       1.191667E-06  -8.146538E-06   0.000000E+00   0.000000E+00   0.000000E+00   0.000000E+00
           285      G       1.226545E-06  -8.905817E-06   0.000000E+00   0.000000E+00   0.000000E+00   0.000000E+00
           286      G       1.258632E-06  -9.686022E-06   0.000000E+00   0.000000E+00   0.000000E+00   0.000000E+00
           287      G       1.287928E-06  -1.048541E-05   0.000000E+00   0.000000E+00   0.000000E+00   0.000000E+00
           288      G       1.314435E-06  -1.130224E-05   0.000000E+00   0.000000E+00   0.000000E+00   0.000000E+00
           289      G       1.338152E-06  -1.213476E-05   0.000000E+00   0.000000E+00   0.000000E+00   0.000000E+00
           290      G       1.359078E-06  -1.298123E-05   0.000000E+00   0.000000E+00   0.000000E+00   0.000000E+00
           291      G       1.377214E-06  -1.383991E-05   0.000000E+00   0.000000E+00   0.000000E+00   0.000000E+00
           292      G       1.392560E-06  -1.470905E-05   0.000000E+00   0.000000E+00   0.000000E+00   0.000000E+00
           293      G       1.405116E-06  -1.558691E-05   0.000000E+00   0.000000E+00   0.000000E+00   0.000000E+00
           294      G       1.414881E-06  -1.647175E-05   0.000000E+00   0.000000E+00   0.000000E+00   0.000000E+00
           295      G       1.421859E-06  -1.736180E-05   0.000000E+00   0.000000E+00   0.000000E+00   0.000000E+00
           296      G       1.426155E-06  -1.825535E-05   0.000000E+00   0.000000E+00   0.000000E+00   0.000000E+00
           297      G       1.428187E-06  -1.915209E-05   0.000000E+00   0.000000E+00   0.000000E+00   0.000000E+00
           298      G      -4.586438E-08  -2.097369E-08   0.000000E+00   0.000000E+00   0.000000E+00   0.000000E+00
           299      G      -7.575506E-08  -4.111795E-08   0.000000E+00   0.000000E+00   0.000000E+00   0.000000E+00
           300      G      -3.760282E-08  -1.606526E-08   0.000000E+00   0.000000E+00   0.000000E+00   0.000000E+00
           301      G      -3.110331E-08  -1.236714E-08   0.000000E+00   0.000000E+00   0.000000E+00   0.000000E+00
           302      G       0.000000E+00   0.000000E+00   0.000000E+00   0.000000E+00   0.000000E+00   0.000000E+00
           303      G      -1.299061E-07  -8.155577E-08   0.000000E+00   0.000000E+00   0.000000E+00   0.000000E+00
           304      G      -1.499116E-07  -1.256667E-07   0.000000E+00   0.000000E+00   0.000000E+00   0.000000E+00
           305      G      -1.130707E-07  -7.679682E-08   0.000000E+00   0.000000E+00   0.000000E+00   0.000000E+00
           306      G      -9.643373E-08  -7.264069E-08   0.000000E+00   0.000000E+00   0.000000E+00   0.000000E+00
           307      G      -2.134193E-07  -1.922708E-07   0.000000E+00   0.000000E+00   0.000000E+00   0.000000E+00
           308      G      -2.219124E-07  -2.624739E-07   0.000000E+00   0.000000E+00   0.000000E+00   0.000000E+00
           309      G      -1.862011E-07  -1.876395E-07   0.000000E+00   0.000000E+00   0.000000E+00   0.000000E+00
           310      G      -1.591921E-07  -1.836241E-07   0.000000E+00   0.000000E+00   0.000000E+00   0.000000E+00
           311      G      -2.943441E-07  -3.544733E-07   0.000000E+00   0.000000E+00   0.000000E+00   0.000000E+00
           312      G      -2.914969E-07  -4.499188E-07   0.000000E+00   0.000000E+00   0.000000E+00   0.000000E+00
           313      G      -2.570027E-07  -3.499979E-07   0.000000E+00   0.000000E+00   0.000000E+00   0.000000E+00
           314      G      -2.198794E-07  -3.461192E-07   0.000000E+00   0.000000E+00   0.000000E+00   0.000000E+00
           315      G      -3.724732E-07  -5.663979E-07   0.000000E+00   0.000000E+00   0.000000E+00   0.000000E+00
           316      G      -3.586368E-07  -6.861980E-07   0.000000E+00   0.000000E+00   0.000000E+00   0.000000E+00
           317      G      -3.253650E-07  -5.620799E-07   0.000000E+00   0.000000E+00   0.000000E+00   0.000000E+00
           318      G      -2.784749E-07  -5.583373E-07   0.000000E+00   0.000000E+00   0.000000E+00   0.000000E+00
           319      G      -4.478084E-07  -8.262796E-07   0.000000E+00   0.000000E+00   0.000000E+00   0.000000E+00
           320      G      -4.233340E-07  -9.695603E-07   0.000000E+00   0.000000E+00   0.000000E+00   0.000000E+00
           321      G      -3.912833E-07  -8.221186E-07   0.000000E+00   0.000000E+00   0.000000E+00   0.000000E+00
           322      G      -3.349762E-07  -8.185121E-07   0.000000E+00   0.000000E+00   0.000000E+00   0.000000E+00
           323      G      -5.203529E-07  -1.132373E-06   0.000000E+00   0.000000E+00   0.000000E+00   0.000000E+00
           324      G      -4.855898E-07  -1.298262E-06   0.000000E+00   0.000000E+00   0.000000E+00   0.000000E+00
           325      G      -4.547598E-07  -1.128369E-06   0.000000E+00   0.000000E+00   0.000000E+00   0.000000E+00
           326      G      -3.893847E-07  -1.124898E-06   0.000000E+00   0.000000E+00   0.000000E+00   0.000000E+00
           327      G      -5.901072E-07  -1.482934E-06   0.000000E+00   0.000000E+00   0.000000E+00   0.000000E+00
           328      G      -5.454042E-07  -1.670561E-06   0.000000E+00   0.000000E+00   0.000000E+00   0.000000E+00
           329      G      -5.157949E-07  -1.479087E-06   0.000000E+00   0.000000E+00   0.000000E+00   0.000000E+00
           330      G      -4.417005E-07  -1.475753E-06   0.000000E+00   0.000000E+00   0.000000E+00   0.000000E+00
           331      G      -6.570715E-07  -1.876220E-06   0.000000E+00   0.000000E+00   0.000000E+00   0.000000E+00
           332      G      -6.027773E-07  -2.084712E-06   0.000000E+00   0.000000E+00   0.000000E+00   0.000000E+00
           333      G      -5.743886E-07  -1.872530E-06   0.000000E+00   0.000000E+00   0.000000E+00   0.000000E+00
           334      G      -4.919237E-07  -1.869332E-06   0.000000E+00   0.000000E+00   0.000000E+00   0.000000E+00
           335      G      -7.212456E-07  -2.310487E-06   0.000000E+00   0.000000E+00   0.000000E+00   0.000000E+00
           336      G      -6.577089E-07  -2.538972E-06   0.000000E+00   0.000000E+00   0.000000E+00   0.000000E+00
           337      G      -6.305410E-07  -2.306954E-06   0.000000E+00   0.000000E+00   0.000000E+00   0.000000E+00
           338      G      -5.400543E-07  -2.303891E-06   0.000000E+00   0.000000E+00   0.000000E+00   0.000000E+00
           339      G      -7.826295E-07  -2.783990E-06   0.000000E+00   0.000000E+00   0.000000E+00   0.000000E+00
           340      G      -7.101992E-07  -3.031597E-06   0.000000E+00   0.000000E+00   0.000000E+00   0.000000E+00
           341      G      -6.842519E-07  -2.780614E-06   0.000000E+00   0.000000E+00   0.000000E+00   0.000000E+00
           342      G      -5.860922E-07  -2.777688E-06   0.000000E+00   0.000000E+00   0.000000E+00   0.000000E+00
           343      G      -8.412233E-07  -3.294987E-06   0.000000E+00   0.000000E+00   0.000000E+00   0.000000E+00
           344      G      -7.602480E-07  -3.560844E-06   0.000000E+00   0.000000E+00   0.000000E+00   0.000000E+00
           345      G      -7.355214E-07  -3.291768E-06   0.000000E+00   0.000000E+00   0.000000E+00   0.000000E+00
           346      G      -6.300376E-07  -3.288977E-06   0.000000E+00   0.000000E+00   0.000000E+00   0.000000E+00
           347      G      -8.970269E-07  -3.841733E-06   0.000000E+00   0.000000E+00   0.000000E+00   0.000000E+00
           348      G      -8.078554E-07  -4.124967E-06   0.000000E+00   0.000000E+00   0.000000E+00   0.000000E+00
           349      G      -7.843496E-07  -3.838670E-06   0.000000E+00   0.000000E+00   0.000000E+00   0.000000E+00
           350      G      -6.718902E-07  -3.836016E-06   0.000000E+00   0.000000E+00   0.000000E+00   0.000000E+00
           351      G      -9.500403E-07  -4.422484E-06   0.000000E+00   0.000000E+00   0.000000E+00   0.000000E+00
           352      G      -8.530214E-07  -4.722224E-06   0.000000E+00   0.000000E+00   0.000000E+00   0.000000E+00
           353      G      -8.307363E-07  -4.419579E-06   0.000000E+00   0.000000E+00   0.000000E+00   0.000000E+00
           354      G      -7.116503E-07  -4.417060E-06   0.000000E+00   0.000000E+00   0.000000E+00   0.000000E+00
           355      G      -1.000263E-06  -5.035497E-06   0.000000E+00   0.000000E+00   0.000000E+00   0.000000E+00
           356      G      -8.957460E-07  -5.350870E-06   0.000000E+00   0.000000E+00   0.000000E+00   0.000000E+00
           357      G      -8.746816E-07  -5.032748E-06   0.000000E+00   0.000000E+00   0.000000E+00   0.000000E+00
           358      G      -7.493177E-07  -5.030366E-06   0.000000E+00   0.000000E+00   0.000000E+00   0.000000E+00
           359      G      -1.047697E-06  -5.679027E-06   0.000000E+00   0.000000E+00   0.000000E+00   0.000000E+00
           360      G      -9.360292E-07  -6.009162E-06   0.000000E+00   0.000000E+00   0.000000E+00   0.000000E+00
           361      G      -9.161855E-07  -5.676435E-06   0.000000E+00   0.000000E+00   0.000000E+00   0.000000E+00
           362      G      -7.848925E-07  -5.674189E-06   0.000000E+00   0.000000E+00   0.000000E+00   0.000000E+00
           363      G      -1.092339E-06  -6.351330E-06   0.000000E+00   0.000000E+00   0.000000E+00   0.000000E+00
           364      G      -9.738710E-07  -6.695356E-06   0.000000E+00   0.000000E+00   0.000000E+00   0.000000E+00
           365      G      -9.552480E-07  -6.348896E-06   0.000000E+00   0.000000E+00   0.000000E+00   0.000000E+00
           366      G      -8.183746E-07  -6.346786E-06   0.000000E+00   0.000000E+00   0.000000E+00   0.000000E+00
           367      G      -1.134192E-06  -7.050664E-06   0.000000E+00   0.000000E+00   0.000000E+00   0.000000E+00
           368      G      -1.009271E-06  -7.407707E-06   0.000000E+00   0.000000E+00   0.000000E+00   0.000000E+00
           369      G      -9.918691E-07  -7.048386E-06   0.000000E+00   0.000000E+00   0.000000E+00   0.000000E+00
           370      G      -8.497641E-07  -7.046412E-06   0.000000E+00   0.000000E+00   0.000000E+00   0.000000E+00
           371      G      -1.173255E-06  -7.775284E-06   0.000000E+00   0.000000E+00   0.000000E+00   0.000000E+00
           372      G      -1.042230E-06  -8.144473E-06   0.000000E+00   0.000000E+00   0.000000E+00   0.000000E+00
           373      G      -1.026049E-06  -7.773163E-06   0.000000E+00   0.000000E+00   0.000000E+00   0.000000E+00
           374      G      -8.790610E-07  -7.771325E-06   0.000000E+00   0.000000E+00   0.000000E+00   0.000000E+00
           375      G      -1.209527E-06  -8.523446E-06   0.000000E+00   0.000000E+00   0.000000E+00   0.000000E+00
           376      G      -1.072748E-06  -8.903909E-06   0.000000E+00   0.000000E+00   0.000000E+00   0.000000E+00
           377      G      -1.057787E-06  -8.521482E-06   0.000000E+00   0.000000E+00   0.000000E+00   0.000000E+00
           378      G      -9.062652E-07  -8.519780E-06   0.000000E+00   0.000000E+00   0.000000E+00   0.000000E+00
           379      G      -1.243009E-06  -9.293406E-06   0.000000E+00   0.000000E+00   0.000000E+00   0.000000E+00
           380      G      -1.100824E-06  -9.684271E-06   0.000000E+00   0.000000E+00   0.000000E+00   0.000000E+00
           381      G      -1.087084E-06  -9.291599E-06   0.000000E+00   0.000000E+00   0.000000E+00   0.000000E+00
           382      G      -9.313768E-07  -9.290033E-06   0.000000E+00   0.000000E+00   0.000000E+00   0.000000E+00
           383      G      -1.273701E-06  -1.008342E-05   0.000000E+00   0.000000E+00   0.000000E+00   0.000000E+00
           384      G      -1.126459E-06  -1.048382E-05   0.000000E+00   0.000000E+00   0.000000E+00   0.000000E+00
           385      G      -1.113939E-06  -1.008177E-05   0.000000E+00   0.000000E+00   0.000000E+00   0.000000E+00
           386      G      -9.543958E-07  -1.008034E-05   0.000000E+00   0.000000E+00   0.000000E+00   0.000000E+00
           387      G      -1.301603E-06  -1.089175E-05   0.000000E+00   0.000000E+00   0.000000E+00   0.000000E+00
           388      G      -1.149652E-06  -1.130080E-05   0.000000E+00   0.000000E+00   0.000000E+00   0.000000E+00
           389      G      -1.138353E-06  -1.089025E-05   0.000000E+00   0.000000E+00   0.000000E+00   0.000000E+00
           390      G      -9.753222E-07  -1.088896E-05   0.000000E+00   0.000000E+00   0.000000E+00   0.000000E+00
           391      G      -1.326714E-06  -1.171664E-05   0.000000E+00   0.000000E+00   0.000000E+00   0.000000E+00
           392      G      -1.170404E-06  -1.213348E-05   0.000000E+00   0.000000E+00   0.000000E+00   0.000000E+00
           393      G      -1.160326E-06  -1.171530E-05   0.000000E+00   0.000000E+00   0.000000E+00   0.000000E+00
           394      G      -9.941559E-07  -1.171414E-05   0.000000E+00   0.000000E+00   0.000000E+00   0.000000E+00
           395      G      -1.349036E-06  -1.255635E-05   0.000000E+00   0.000000E+00   0.000000E+00   0.000000E+00
           396      G      -1.188715E-06  -1.298011E-05   0.000000E+00   0.000000E+00   0.000000E+00   0.000000E+00
           397      G      -1.179857E-06  -1.255517E-05   0.000000E+00   0.000000E+00   0.000000E+00   0.000000E+00
           398      G      -1.010897E-06  -1.255415E-05   0.000000E+00   0.000000E+00   0.000000E+00   0.000000E+00
           399      G      -1.368567E-06  -1.340914E-05   0.000000E+00   0.000000E+00   0.000000E+00   0.000000E+00
           400      G      -1.204584E-06  -1.383894E-05   0.000000E+00   0.000000E+00   0.000000E+00   0.000000E+00
           401      G      -1.196947E-06  -1.340812E-05   0.000000E+00   0.000000E+00   0.000000E+00   0.000000E+00
           402      G      -1.025545E-06  -1.340724E-05   0.000000E+00   0.000000E+00   0.000000E+00   0.000000E+00
           403      G      -1.385308E-06  -1.427327E-05   0.000000E+00   0.000000E+00   0.000000E+00   0.000000E+00
           404      G      -1.218012E-06  -1.470824E-05   0.000000E+00   0.000000E+00   0.000000E+00   0.000000E+00
           405      G      -1.211596E-06  -1.427241E-05   0.000000E+00   0.000000E+00   0.000000E+00   0.000000E+00
           406      G      -1.038101E-06  -1.427166E-05   0.000000E+00   0.000000E+00   0.000000E+00   0.000000E+00
           407      G      -1.399259E-06  -1.514699E-05   0.000000E+00   0.000000E+00   0.000000E+00   0.000000E+00
           408      G      -1.228998E-06  -1.558626E-05   0.000000E+00   0.000000E+00   0.000000E+00   0.000000E+00
           409      G      -1.223803E-06  -1.514629E-05   0.000000E+00   0.000000E+00   0.000000E+00   0.000000E+00
           410      G      -1.048564E-06  -1.514567E-05   0.000000E+00   0.000000E+00   0.000000E+00   0.000000E+00
           411      G      -1.410420E-06  -1.602856E-05   0.000000E+00   0.000000E+00   0.000000E+00   0.000000E+00
           412      G      -1.237543E-06  -1.647125E-05   0.000000E+00   0.000000E+00   0.000000E+00   0.000000E+00
           413      G      -1.233568E-06  -1.602801E-05   0.000000E+00   0.000000E+00   0.000000E+00   0.000000E+00
           414      G      -1.056935E-06  -1.602753E-05   0.000000E+00   0.000000E+00   0.000000E+00   0.000000E+00
           415      G      -1.418791E-06  -1.691623E-05   0.000000E+00   0.000000E+00   0.000000E+00   0.000000E+00
           416      G      -1.243654E-06  -1.736147E-05   0.000000E+00   0.000000E+00   0.000000E+00   0.000000E+00
           417      G      -1.240894E-06  -1.691583E-05   0.000000E+00   0.000000E+00   0.000000E+00   0.000000E+00
           418      G      -1.063214E-06  -1.691549E-05   0.000000E+00   0.000000E+00   0.000000E+00   0.000000E+00
           419      G      -1.424411E-06  -1.780824E-05   0.000000E+00   0.000000E+00   0.000000E+00   0.000000E+00
           420      G      -1.247377E-06  -1.825518E-05   0.000000E+00   0.000000E+00   0.000000E+00   0.000000E+00
           421      G      -1.245804E-06  -1.780800E-05   0.000000E+00   0.000000E+00   0.000000E+00   0.000000E+00
           422      G      -1.067404E-06  -1.780780E-05   0.000000E+00   0.000000E+00   0.000000E+00   0.000000E+00
           423      G      -1.427543E-06  -1.870319E-05   0.000000E+00   0.000000E+00   0.000000E+00   0.000000E+00
           424      G      -1.248850E-06  -1.915183E-05   0.000000E+00   0.000000E+00   0.000000E+00   0.000000E+00
           425      G      -1.248360E-06  -1.870307E-05   0.000000E+00   0.000000E+00   0.000000E+00   0.000000E+00
           426      G      -1.069446E-06  -1.870296E-05   0.000000E+00   0.000000E+00   0.000000E+00   0.000000E+00
           427      G      -5.286586E-08  -3.314910E-08   0.000000E+00   0.000000E+00   0.000000E+00   0.000000E+00
           428      G      -2.536415E-08  -9.577185E-09   0.000000E+00   0.000000E+00   0.000000E+00   0.000000E+00
           429      G      -2.002370E-08  -7.478652E-09   0.000000E+00   0.000000E+00   0.000000E+00   0.000000E+00
           430      G       0.000000E+00   0.000000E+00   0.000000E+00   0.000000E+00   0.000000E+00   0.000000E+00
           431      G      -1.064039E-07  -1.181084E-07   0.000000E+00   0.000000E+00   0.000000E+00   0.000000E+00
           432      G      -7.996050E-08  -6.909852E-08   0.000000E+00   0.000000E+00   0.000000E+00   0.000000E+00
           433      G      -6.367091E-08  -6.615270E-08   0.000000E+00   0.000000E+00   0.000000E+00   0.000000E+00
           434      G      -1.578789E-07  -2.551957E-07   0.000000E+00   0.000000E+00   0.000000E+00   0.000000E+00
           435      G      -1.323677E-07  -1.802224E-07   0.000000E+00   0.000000E+00   0.000000E+00   0.000000E+00
           436      G      -1.057045E-07  -1.774335E-07   0.000000E+00   0.000000E+00   0.000000E+00   0.000000E+00
           437      G      -2.075814E-07  -4.428940E-07   0.000000E+00   0.000000E+00   0.000000E+00   0.000000E+00
           438      G      -1.829481E-07  -3.428372E-07   0.000000E+00   0.000000E+00   0.000000E+00   0.000000E+00
           439      G      -1.461771E-07  -3.401522E-07   0.000000E+00   0.000000E+00   0.000000E+00   0.000000E+00
           440      G      -2.555377E-07  -6.794243E-07   0.000000E+00   0.000000E+00   0.000000E+00   0.000000E+00
           441      G      -2.317768E-07  -5.551708E-07   0.000000E+00   0.000000E+00   0.000000E+00   0.000000E+00
           442      G      -1.852390E-07  -5.525805E-07   0.000000E+00   0.000000E+00   0.000000E+00   0.000000E+00
           443      G      -3.017500E-07  -9.630377E-07   0.000000E+00   0.000000E+00   0.000000E+00   0.000000E+00
           444      G      -2.788611E-07  -8.154606E-07   0.000000E+00   0.000000E+00   0.000000E+00   0.000000E+00
           445      G      -2.229062E-07  -8.129644E-07   0.000000E+00   0.000000E+00   0.000000E+00   0.000000E+00
           446      G      -3.462185E-07  -1.291991E-06   0.000000E+00   0.000000E+00   0.000000E+00   0.000000E+00
           447      G      -3.242015E-07  -1.121962E-06   0.000000E+00   0.000000E+00   0.000000E+00   0.000000E+00
           448      G      -2.591785E-07  -1.119560E-06   0.000000E+00   0.000000E+00   0.000000E+00   0.000000E+00
           449      G      -3.889431E-07  -1.664541E-06   0.000000E+00   0.000000E+00   0.000000E+00   0.000000E+00
           450      G      -3.677980E-07  -1.472931E-06   0.000000E+00   0.000000E+00   0.000000E+00   0.000000E+00
           451      G      -2.940558E-07  -1.470623E-06   0.000000E+00   0.000000E+00   0.000000E+00   0.000000E+00
           452      G      -4.299238E-07  -2.078943E-06   0.000000E+00   0.000000E+00   0.000000E+00   0.000000E+00
           453      G      -4.096507E-07  -1.866625E-06   0.000000E+00   0.000000E+00   0.000000E+00   0.000000E+00
           454      G      -3.275379E-07  -1.864412E-06   0.000000E+00   0.000000E+00   0.000000E+00   0.000000E+00
           455      G      -4.691607E-07  -2.533454E-06   0.000000E+00   0.000000E+00   0.000000E+00   0.000000E+00
           456      G      -4.497595E-07  -2.301300E-06   0.000000E+00   0.000000E+00   0.000000E+00   0.000000E+00
           457      G      -3.596250E-07  -2.299181E-06   0.000000E+00   0.000000E+00   0.000000E+00   0.000000E+00
           458      G      -5.066537E-07  -3.026330E-06   0.000000E+00   0.000000E+00   0.000000E+00   0.000000E+00
           459      G      -4.881245E-07  -2.775212E-06   0.000000E+00   0.000000E+00   0.000000E+00   0.000000E+00
           460      G      -3.903169E-07  -2.773186E-06   0.000000E+00   0.000000E+00   0.000000E+00   0.000000E+00
           461      G      -5.424029E-07  -3.555828E-06   0.000000E+00   0.000000E+00   0.000000E+00   0.000000E+00
           462      G      -5.247456E-07  -3.286616E-06   0.000000E+00   0.000000E+00   0.000000E+00   0.000000E+00
           463      G      -4.196138E-07  -3.284685E-06   0.000000E+00   0.000000E+00   0.000000E+00   0.000000E+00
           464      G      -5.764082E-07  -4.120202E-06   0.000000E+00   0.000000E+00   0.000000E+00   0.000000E+00
           465      G      -5.596228E-07  -3.833770E-06   0.000000E+00   0.000000E+00   0.000000E+00   0.000000E+00
           466      G      -4.475156E-07  -3.831933E-06   0.000000E+00   0.000000E+00   0.000000E+00   0.000000E+00
           467      G      -6.086696E-07  -4.717710E-06   0.000000E+00   0.000000E+00   0.000000E+00   0.000000E+00
           468      G      -5.927562E-07  -4.414930E-06   0.000000E+00   0.000000E+00   0.000000E+00   0.000000E+00
           469      G      -4.740223E-07  -4.413187E-06   0.000000E+00   0.000000E+00   0.000000E+00   0.000000E+00
           470      G      -6.391872E-07  -5.346607E-06   0.000000E+00   0.000000E+00   0.000000E+00   0.000000E+00
           471      G      -6.241457E-07  -5.028350E-06   0.000000E+00   0.000000E+00   0.000000E+00   0.000000E+00
           472      G      -4.991339E-07  -5.026701E-06   0.000000E+00   0.000000E+00   0.000000E+00   0.000000E+00
           473      G      -6.679609E-07  -6.005150E-06   0.000000E+00   0.000000E+00   0.000000E+00   0.000000E+00
           474      G      -6.537913E-07  -5.672288E-06   0.000000E+00   0.000000E+00   0.000000E+00   0.000000E+00
           475      G      -5.228504E-07  -5.670734E-06   0.000000E+00   0.000000E+00   0.000000E+00   0.000000E+00
           476      G      -6.949908E-07  -6.691595E-06   0.000000E+00   0.000000E+00   0.000000E+00   0.000000E+00
           477      G      -6.816931E-07  -6.345000E-06   0.000000E+00   0.000000E+00   0.000000E+00   0.000000E+00
           478      G      -5.451718E-07  -6.343540E-06   0.000000E+00   0.000000E+00   0.000000E+00   0.000000E+00
           479      G      -7.202768E-07  -7.404198E-06   0.000000E+00   0.000000E+00   0.000000E+00   0.000000E+00
           480      G      -7.078510E-07  -7.044742E-06   0.000000E+00   0.000000E+00   0.000000E+00   0.000000E+00
           481      G      -5.660982E-07  -7.043376E-06   0.000000E+00   0.000000E+00   0.000000E+00   0.000000E+00
           482      G      -7.438189E-07  -8.141215E-06   0.000000E+00   0.000000E+00   0.000000E+00   0.000000E+00
           483      G      -7.322651E-07  -7.769770E-06   0.000000E+00   0.000000E+00   0.000000E+00   0.000000E+00
           484      G      -5.856294E-07  -7.768498E-06   0.000000E+00   0.000000E+00   0.000000E+00   0.000000E+00
           485      G      -7.656172E-07  -8.900902E-06   0.000000E+00   0.000000E+00   0.000000E+00   0.000000E+00
           486      G      -7.549353E-07  -8.518340E-06   0.000000E+00   0.000000E+00   0.000000E+00   0.000000E+00
           487      G      -6.037656E-07  -8.517162E-06   0.000000E+00   0.000000E+00   0.000000E+00   0.000000E+00
           488      G      -7.856716E-07  -9.681515E-06   0.000000E+00   0.000000E+00   0.000000E+00   0.000000E+00
           489      G      -7.758616E-07  -9.288708E-06   0.000000E+00   0.000000E+00   0.000000E+00   0.000000E+00
           490      G      -6.205066E-07  -9.287624E-06   0.000000E+00   0.000000E+00   0.000000E+00   0.000000E+00
           491      G      -8.039821E-07  -1.048131E-05   0.000000E+00   0.000000E+00   0.000000E+00   0.000000E+00
           492      G      -7.950441E-07  -1.007913E-05   0.000000E+00   0.000000E+00   0.000000E+00   0.000000E+00
           493      G      -6.358526E-07  -1.007814E-05   0.000000E+00   0.000000E+00   0.000000E+00   0.000000E+00
           494      G      -8.205488E-07  -1.129855E-05   0.000000E+00   0.000000E+00   0.000000E+00   0.000000E+00
           495      G      -8.124827E-07  -1.088786E-05   0.000000E+00   0.000000E+00   0.000000E+00   0.000000E+00
           496      G      -6.498035E-07  -1.088697E-05   0.000000E+00   0.000000E+00   0.000000E+00   0.000000E+00
           497      G      -8.353716E-07  -1.213147E-05   0.000000E+00   0.000000E+00   0.000000E+00   0.000000E+00
           498      G      -8.281775E-07  -1.171316E-05   0.000000E+00   0.000000E+00   0.000000E+00   0.000000E+00
           499      G      -6.623593E-07  -1.171236E-05   0.000000E+00   0.000000E+00   0.000000E+00   0.000000E+00
           500      G      -8.484506E-07  -1.297835E-05   0.000000E+00   0.000000E+00   0.000000E+00   0.000000E+00
           501      G      -8.421284E-07  -1.255329E-05   0.000000E+00   0.000000E+00   0.000000E+00   0.000000E+00
           502      G      -6.735200E-07  -1.255258E-05   0.000000E+00   0.000000E+00   0.000000E+00   0.000000E+00
           503      G      -8.597857E-07  -1.383744E-05   0.000000E+00   0.000000E+00   0.000000E+00   0.000000E+00
           504      G      -8.543354E-07  -1.340649E-05   0.000000E+00   0.000000E+00   0.000000E+00   0.000000E+00
           505      G      -6.832857E-07  -1.340587E-05   0.000000E+00   0.000000E+00   0.000000E+00   0.000000E+00
           506      G      -8.693770E-07  -1.470699E-05   0.000000E+00   0.000000E+00   0.000000E+00   0.000000E+00
           507      G      -8.647986E-07  -1.427102E-05   0.000000E+00   0.000000E+00   0.000000E+00   0.000000E+00
           508      G      -6.916562E-07  -1.427051E-05   0.000000E+00   0.000000E+00   0.000000E+00   0.000000E+00
           509      G      -8.772244E-07  -1.558526E-05   0.000000E+00   0.000000E+00   0.000000E+00   0.000000E+00
           510      G      -8.735179E-07  -1.514515E-05   0.000000E+00   0.000000E+00   0.000000E+00   0.000000E+00
           511      G      -6.986317E-07  -1.514473E-05   0.000000E+00   0.000000E+00   0.000000E+00   0.000000E+00
           512      G      -8.833281E-07  -1.647051E-05   0.000000E+00   0.000000E+00   0.000000E+00   0.000000E+00
           513      G      -8.804935E-07  -1.602713E-05   0.000000E+00   0.000000E+00   0.000000E+00   0.000000E+00
           514      G      -7.042121E-07  -1.602680E-05   0.000000E+00   0.000000E+00   0.000000E+00   0.000000E+00
           515      G      -8.876839E-07  -1.736098E-05   0.000000E+00   0.000000E+00   0.000000E+00   0.000000E+00
           516      G      -8.857247E-07  -1.691520E-05   0.000000E+00   0.000000E+00   0.000000E+00   0.000000E+00
           517      G      -7.083954E-07  -1.691497E-05   0.000000E+00   0.000000E+00   0.000000E+00   0.000000E+00
           518      G      -8.902327E-07  -1.825496E-05   0.000000E+00   0.000000E+00   0.000000E+00   0.000000E+00
           519      G      -8.891922E-07  -1.780763E-05   0.000000E+00   0.000000E+00   0.000000E+00   0.000000E+00
           520      G      -7.111490E-07  -1.780751E-05   0.000000E+00   0.000000E+00   0.000000E+00   0.000000E+00
           521      G      -8.910872E-07  -1.915120E-05   0.000000E+00   0.000000E+00   0.000000E+00   0.000000E+00
           522      G      -8.907968E-07  -1.870286E-05   0.000000E+00   0.000000E+00   0.000000E+00   0.000000E+00
           523      G      -7.123724E-07  -1.870275E-05   0.000000E+00   0.000000E+00   0.000000E+00   0.000000E+00
           524      G      -3.119084E-08  -2.787350E-08   0.000000E+00   0.000000E+00   0.000000E+00   0.000000E+00
           525      G      -1.488057E-08  -5.950205E-09   0.000000E+00   0.000000E+00   0.000000E+00   0.000000E+00
           526      G      -9.862538E-09  -4.904475E-09   0.000000E+00   0.000000E+00   0.000000E+00   0.000000E+00
           527      G       0.000000E+00   0.000000E+00   0.000000E+00   0.000000E+00   0.000000E+00   0.000000E+00
           528      G      -6.355333E-08  -1.130254E-07   0.000000E+00   0.000000E+00   0.000000E+00   0.000000E+00
           529      G      -4.756635E-08  -6.385060E-08   0.000000E+00   0.000000E+00   0.000000E+00   0.000000E+00
           530      G      -3.163439E-08  -6.219702E-08   0.000000E+00   0.000000E+00   0.000000E+00   0.000000E+00
           531      G      -9.449195E-08  -2.503380E-07   0.000000E+00   0.000000E+00   0.000000E+00   0.000000E+00
           532      G      -7.917348E-08  -1.752591E-07   0.000000E+00   0.000000E+00   0.000000E+00   0.000000E+00
           533      G      -5.274669E-08  -1.737024E-07   0.000000E+00   0.000000E+00   0.000000E+00   0.000000E+00
           534      G      -1.243129E-07  -4.382099E-07   0.000000E+00   0.000000E+00   0.000000E+00   0.000000E+00
           535      G      -1.095342E-07  -3.380640E-07   0.000000E+00   0.000000E+00   0.000000E+00   0.000000E+00
           536      G      -7.298760E-08  -3.365726E-07   0.000000E+00   0.000000E+00   0.000000E+00   0.000000E+00
           537      G      -1.530856E-07  -6.749073E-07   0.000000E+00   0.000000E+00   0.000000E+00   0.000000E+00
           538      G      -1.388296E-07  -5.505661E-07   0.000000E+00   0.000000E+00   0.000000E+00   0.000000E+00
           539      G      -9.251637E-08  -5.491275E-07   0.000000E+00   0.000000E+00   0.000000E+00   0.000000E+00
           540      G      -1.808129E-07  -9.586879E-07   0.000000E+00   0.000000E+00   0.000000E+00   0.000000E+00
           541      G      -1.670797E-07  -8.110230E-07   0.000000E+00   0.000000E+00   0.000000E+00   0.000000E+00
           542      G      -1.113494E-07  -8.096365E-07   0.000000E+00   0.000000E+00   0.000000E+00   0.000000E+00
           543      G      -2.074940E-07  -1.287809E-06   0.000000E+00   0.000000E+00   0.000000E+00   0.000000E+00
           544      G      -1.942840E-07  -1.117692E-06   0.000000E+00   0.000000E+00   0.000000E+00   0.000000E+00
           545      G      -1.294856E-07  -1.116357E-06   0.000000E+00   0.000000E+00   0.000000E+00   0.000000E+00
           546      G      -2.331288E-07  -1.660526E-06   0.000000E+00   0.000000E+00   0.000000E+00   0.000000E+00
           547      G      -2.204419E-07  -1.468828E-06   0.000000E+00   0.000000E+00   0.000000E+00   0.000000E+00
           548      G      -1.469242E-07  -1.467546E-06   0.000000E+00   0.000000E+00   0.000000E+00   0.000000E+00
           549      G      -2.577172E-07  -2.075096E-06   0.000000E+00   0.000000E+00   0.000000E+00   0.000000E+00
           550      G      -2.455535E-07  -1.862690E-06   0.000000E+00   0.000000E+00   0.000000E+00   0.000000E+00
           551      G      -1.636653E-07  -1.861460E-06   0.000000E+00   0.000000E+00   0.000000E+00   0.000000E+00
           552      G      -2.812593E-07  -2.529774E-06   0.000000E+00   0.000000E+00   0.000000E+00   0.000000E+00
           553      G      -2.696188E-07  -2.297532E-06   0.000000E+00   0.000000E+00   0.000000E+00   0.000000E+00
           554      G      -1.797088E-07  -2.296355E-06   0.000000E+00   0.000000E+00   0.000000E+00   0.000000E+00
           555      G      -3.037552E-07  -3.022818E-06   0.000000E+00   0.000000E+00   0.000000E+00   0.000000E+00
           556      G      -2.926378E-07  -2.771611E-06   0.000000E+00   0.000000E+00   0.000000E+00   0.000000E+00
           557      G      -1.950548E-07  -2.770486E-06   0.000000E+00   0.000000E+00   0.000000E+00   0.000000E+00
           558      G      -3.252047E-07  -3.552482E-06   0.000000E+00   0.000000E+00   0.000000E+00   0.000000E+00
           559      G      -3.146104E-07  -3.283183E-06   0.000000E+00   0.000000E+00   0.000000E+00   0.000000E+00
           560      G      -2.097033E-07  -3.282111E-06   0.000000E+00   0.000000E+00   0.000000E+00   0.000000E+00
           561      G      -3.456078E-07  -4.117024E-06   0.000000E+00   0.000000E+00   0.000000E+00   0.000000E+00
           562      G      -3.355368E-07  -3.830505E-06   0.000000E+00   0.000000E+00   0.000000E+00   0.000000E+00
           563      G      -2.236542E-07  -3.829484E-06   0.000000E+00   0.000000E+00   0.000000E+00   0.000000E+00
           564      G      -3.649647E-07  -4.714700E-06   0.000000E+00   0.000000E+00   0.000000E+00   0.000000E+00
           565      G      -3.554168E-07  -4.411831E-06   0.000000E+00   0.000000E+00   0.000000E+00   0.000000E+00
           566      G      -2.369075E-07  -4.410863E-06   0.000000E+00   0.000000E+00   0.000000E+00   0.000000E+00
           567      G      -3.832752E-07  -5.343764E-06   0.000000E+00   0.000000E+00   0.000000E+00   0.000000E+00
           568      G      -3.742505E-07  -5.025419E-06   0.000000E+00   0.000000E+00   0.000000E+00   0.000000E+00
           569      G      -2.494633E-07  -5.024503E-06   0.000000E+00   0.000000E+00   0.000000E+00   0.000000E+00
           570      G      -4.005395E-07  -6.002475E-06   0.000000E+00   0.000000E+00   0.000000E+00   0.000000E+00
           571      G      -3.920379E-07  -5.669525E-06   0.000000E+00   0.000000E+00   0.000000E+00   0.000000E+00
           572      G      -2.613216E-07  -5.668661E-06   0.000000E+00   0.000000E+00   0.000000E+00   0.000000E+00
           573      G      -4.167574E-07  -6.689087E-06   0.000000E+00   0.000000E+00   0.000000E+00   0.000000E+00
           574      G      -4.087790E-07  -6.342404E-06   0.000000E+00   0.000000E+00   0.000000E+00   0.000000E+00
           575      G      -2.724823E-07  -6.341593E-06   0.000000E+00   0.000000E+00   0.000000E+00   0.000000E+00
           576      G      -4.319290E-07  -7.401857E-06   0.000000E+00   0.000000E+00   0.000000E+00   0.000000E+00
           577      G      -4.244737E-07  -7.042313E-06   0.000000E+00   0.000000E+00   0.000000E+00   0.000000E+00
           578      G      -2.829455E-07  -7.041554E-06   0.000000E+00   0.000000E+00   0.000000E+00   0.000000E+00
           579      G      -4.460543E-07  -8.139041E-06   0.000000E+00   0.000000E+00   0.000000E+00   0.000000E+00
           580      G      -4.391222E-07  -7.767508E-06   0.000000E+00   0.000000E+00   0.000000E+00   0.000000E+00
           581      G      -2.927111E-07  -7.766802E-06   0.000000E+00   0.000000E+00   0.000000E+00   0.000000E+00
           582      G      -4.591332E-07  -8.898896E-06   0.000000E+00   0.000000E+00   0.000000E+00   0.000000E+00
           583      G      -4.527243E-07  -8.516246E-06   0.000000E+00   0.000000E+00   0.000000E+00   0.000000E+00
           584      G      -3.017792E-07  -8.515591E-06   0.000000E+00   0.000000E+00   0.000000E+00   0.000000E+00
           585      G      -4.711659E-07  -9.679676E-06   0.000000E+00   0.000000E+00   0.000000E+00   0.000000E+00
           586      G      -4.652801E-07  -9.286781E-06   0.000000E+00   0.000000E+00   0.000000E+00   0.000000E+00
           587      G      -3.101497E-07  -9.286179E-06   0.000000E+00   0.000000E+00   0.000000E+00   0.000000E+00
           588      G      -4.821522E-07  -1.047964E-05   0.000000E+00   0.000000E+00   0.000000E+00   0.000000E+00
           589      G      -4.767896E-07  -1.007737E-05   0.000000E+00   0.000000E+00   0.000000E+00   0.000000E+00
           590      G      -3.178227E-07  -1.007682E-05   0.000000E+00   0.000000E+00   0.000000E+00   0.000000E+00
           591      G      -4.920922E-07  -1.129704E-05   0.000000E+00   0.000000E+00   0.000000E+00   0.000000E+00
           592      G      -4.872527E-07  -1.088627E-05   0.000000E+00   0.000000E+00   0.000000E+00   0.000000E+00
           593      G      -3.247981E-07  -1.088577E-05   0.000000E+00   0.000000E+00   0.000000E+00   0.000000E+00
           594      G      -5.009859E-07  -1.213014E-05   0.000000E+00   0.000000E+00   0.000000E+00   0.000000E+00
           595      G      -4.966696E-07  -1.171174E-05   0.000000E+00   0.000000E+00   0.000000E+00   0.000000E+00
           596      G      -3.310760E-07  -1.171129E-05   0.000000E+00   0.000000E+00   0.000000E+00   0.000000E+00
           597      G      -5.088333E-07  -1.297719E-05   0.000000E+00   0.000000E+00   0.000000E+00   0.000000E+00
           598      G      -5.050401E-07  -1.255203E-05   0.000000E+00   0.000000E+00   0.000000E+00   0.000000E+00
           599      G      -3.366564E-07  -1.255164E-05   0.000000E+00   0.000000E+00   0.000000E+00   0.000000E+00
           600      G      -5.156343E-07  -1.383644E-05   0.000000E+00   0.000000E+00   0.000000E+00   0.000000E+00
           601      G      -5.123644E-07  -1.340540E-05   0.000000E+00   0.000000E+00   0.000000E+00   0.000000E+00
           602      G      -3.415392E-07  -1.340506E-05   0.000000E+00   0.000000E+00   0.000000E+00   0.000000E+00
           603      G      -5.213891E-07  -1.470616E-05   0.000000E+00   0.000000E+00   0.000000E+00   0.000000E+00
           604      G      -5.186423E-07  -1.427010E-05   0.000000E+00   0.000000E+00   0.000000E+00   0.000000E+00
           605      G      -3.457245E-07  -1.426981E-05   0.000000E+00   0.000000E+00   0.000000E+00   0.000000E+00
           606      G      -5.260975E-07  -1.558459E-05   0.000000E+00   0.000000E+00   0.000000E+00   0.000000E+00
           607      G      -5.238739E-07  -1.514440E-05   0.000000E+00   0.000000E+00   0.000000E+00   0.000000E+00
           608      G      -3.492122E-07  -1.514416E-05   0.000000E+00   0.000000E+00   0.000000E+00   0.000000E+00
           609      G      -5.297591E-07  -1.647001E-05   0.000000E+00   0.000000E+00   0.000000E+00   0.000000E+00
           610      G      -5.280591E-07  -1.602654E-05   0.000000E+00   0.000000E+00   0.000000E+00   0.000000E+00
           611      G      -3.520022E-07  -1.602636E-05   0.000000E+00   0.000000E+00   0.000000E+00   0.000000E+00
           612      G      -5.323622E-07  -1.736066E-05   0.000000E+00   0.000000E+00   0.000000E+00   0.000000E+00
           613      G      -5.311948E-07  -1.691479E-05   0.000000E+00   0.000000E+00   0.000000E+00   0.000000E+00
           614      G      -3.540917E-07  -1.691466E-05   0.000000E+00   0.000000E+00   0.000000E+00   0.000000E+00
           615      G      -5.338305E-07  -1.825484E-05   0.000000E+00   0.000000E+00   0.000000E+00   0.000000E+00
           616      G      -5.332459E-07  -1.780741E-05   0.000000E+00   0.000000E+00   0.000000E+00   0.000000E+00
           617      G      -3.554514E-07  -1.780735E-05   0.000000E+00   0.000000E+00   0.000000E+00   0.000000E+00
           618      G      -5.343014E-07  -1.915054E-05   0.000000E+00   0.000000E+00   0.000000E+00   0.000000E+00
           619      G      -5.341316E-07  -1.870266E-05   0.000000E+00   0.000000E+00   0.000000E+00   0.000000E+00
           620      G      -3.560315E-07  -1.870259E-05   0.000000E+00   0.000000E+00   0.000000E+00   0.000000E+00
           621      G      -1.033043E-08  -2.532940E-08   0.000000E+00   0.000000E+00   0.000000E+00   0.000000E+00
           622      G      -4.896439E-09  -4.295152E-09   0.000000E+00   0.000000E+00   0.000000E+00   0.000000E+00
           623      G       3.641178E-11  -4.090928E-09   0.000000E+00   0.000000E+00   0.000000E+00   0.000000E+00
           624      G       0.000000E+00   0.000000E+00   0.000000E+00   0.000000E+00   0.000000E+00   0.000000E+00
           625      G      -2.117244E-08  -1.104561E-07   0.000000E+00   0.000000E+00   0.000000E+00   0.000000E+00
           626      G      -1.580846E-08  -6.120193E-08   0.000000E+00   0.000000E+00   0.000000E+00   0.000000E+00
           627      G      -5.328237E-11  -6.085895E-08   0.000000E+00   0.000000E+00   0.000000E+00   0.000000E+00
           628      G      -3.149352E-08  -2.479082E-07   0.000000E+00   0.000000E+00   0.000000E+00   0.000000E+00
           629      G      -2.638903E-08  -1.727667E-07   0.000000E+00   0.000000E+00   0.000000E+00   0.000000E+00
           630      G      -6.621505E-11  -1.724538E-07   0.000000E+00   0.000000E+00   0.000000E+00   0.000000E+00
           631      G      -4.142925E-08  -4.358683E-07   0.000000E+00   0.000000E+00   0.000000E+00   0.000000E+00
           632      G      -3.650488E-08  -3.356783E-07   0.000000E+00   0.000000E+00   0.000000E+00   0.000000E+00
           633      G      -5.378909E-11  -3.353809E-07   0.000000E+00   0.000000E+00   0.000000E+00   0.000000E+00
           634      G      -5.101876E-08  -6.726486E-07   0.000000E+00   0.000000E+00   0.000000E+00   0.000000E+00
           635      G      -4.626721E-08  -5.482645E-07   0.000000E+00   0.000000E+00   0.000000E+00   0.000000E+00
           636      G      -5.000442E-11  -5.479771E-07   0.000000E+00   0.000000E+00   0.000000E+00   0.000000E+00
           637      G      -6.026100E-08  -9.565126E-07   0.000000E+00   0.000000E+00   0.000000E+00   0.000000E+00
           638      G      -5.568335E-08  -8.088045E-07   0.000000E+00   0.000000E+00   0.000000E+00   0.000000E+00
           639      G      -4.931506E-11  -8.085272E-07   0.000000E+00   0.000000E+00   0.000000E+00   0.000000E+00
           640      G      -6.915473E-08  -1.285717E-06   0.000000E+00   0.000000E+00   0.000000E+00   0.000000E+00
           641      G      -6.475140E-08  -1.115557E-06   0.000000E+00   0.000000E+00   0.000000E+00   0.000000E+00
           642      G      -4.929985E-11  -1.115290E-06   0.000000E+00   0.000000E+00   0.000000E+00   0.000000E+00
           643      G      -7.769969E-08  -1.658518E-06   0.000000E+00   0.000000E+00   0.000000E+00   0.000000E+00
           644      G      -7.347075E-08  -1.466777E-06   0.000000E+00   0.000000E+00   0.000000E+00   0.000000E+00
           645      G      -4.934434E-11  -1.466521E-06   0.000000E+00   0.000000E+00   0.000000E+00   0.000000E+00
           646      G      -8.589585E-08  -2.073171E-06   0.000000E+00   0.000000E+00   0.000000E+00   0.000000E+00
           647      G      -8.184131E-08  -1.860722E-06   0.000000E+00   0.000000E+00   0.000000E+00   0.000000E+00
           648      G      -4.936353E-11  -1.860476E-06   0.000000E+00   0.000000E+00   0.000000E+00   0.000000E+00
           649      G      -9.374322E-08  -2.527934E-06   0.000000E+00   0.000000E+00   0.000000E+00   0.000000E+00
           650      G      -8.986308E-08  -2.295648E-06   0.000000E+00   0.000000E+00   0.000000E+00   0.000000E+00
           651      G      -4.936812E-11  -2.295413E-06   0.000000E+00   0.000000E+00   0.000000E+00   0.000000E+00
           652      G      -1.012418E-07  -3.021061E-06   0.000000E+00   0.000000E+00   0.000000E+00   0.000000E+00
           653      G      -9.753607E-08  -2.769811E-06   0.000000E+00   0.000000E+00   0.000000E+00   0.000000E+00
           654      G      -4.936860E-11  -2.769586E-06   0.000000E+00   0.000000E+00   0.000000E+00   0.000000E+00
           655      G      -1.083917E-07  -3.550809E-06   0.000000E+00   0.000000E+00   0.000000E+00   0.000000E+00
           656      G      -1.048603E-07  -3.281467E-06   0.000000E+00   0.000000E+00   0.000000E+00   0.000000E+00
           657      G      -4.936847E-11  -3.281252E-06   0.000000E+00   0.000000E+00   0.000000E+00   0.000000E+00
           658      G      -1.151927E-07  -4.115435E-06   0.000000E+00   0.000000E+00   0.000000E+00   0.000000E+00
           659      G      -1.118357E-07  -3.828872E-06   0.000000E+00   0.000000E+00   0.000000E+00   0.000000E+00
           660      G      -4.936838E-11  -3.828668E-06   0.000000E+00   0.000000E+00   0.000000E+00   0.000000E+00
           661      G      -1.216450E-07  -4.713194E-06   0.000000E+00   0.000000E+00   0.000000E+00   0.000000E+00
           662      G      -1.184624E-07  -4.410282E-06   0.000000E+00   0.000000E+00   0.000000E+00   0.000000E+00
           663      G      -4.936836E-11  -4.410088E-06   0.000000E+00   0.000000E+00   0.000000E+00   0.000000E+00
           664      G      -1.277485E-07  -5.342342E-06   0.000000E+00   0.000000E+00   0.000000E+00   0.000000E+00
           665      G      -1.247403E-07  -5.023954E-06   0.000000E+00   0.000000E+00   0.000000E+00   0.000000E+00
           666      G      -4.936835E-11  -5.023771E-06   0.000000E+00   0.000000E+00   0.000000E+00   0.000000E+00
           667      G      -1.335033E-07  -6.001136E-06   0.000000E+00   0.000000E+00   0.000000E+00   0.000000E+00
           668      G      -1.306694E-07  -5.668143E-06   0.000000E+00   0.000000E+00   0.000000E+00   0.000000E+00
           669      G      -4.936835E-11  -5.667970E-06   0.000000E+00   0.000000E+00   0.000000E+00   0.000000E+00
           670      G      -1.389092E-07  -6.687832E-06   0.000000E+00   0.000000E+00   0.000000E+00   0.000000E+00
           671      G      -1.362498E-07  -6.341106E-06   0.000000E+00   0.000000E+00   0.000000E+00   0.000000E+00
           672      G      -4.936835E-11  -6.340944E-06   0.000000E+00   0.000000E+00   0.000000E+00   0.000000E+00
           673      G      -1.439664E-07  -7.400686E-06   0.000000E+00   0.000000E+00   0.000000E+00   0.000000E+00
           674      G      -1.414814E-07  -7.041099E-06   0.000000E+00   0.000000E+00   0.000000E+00   0.000000E+00
           675      G      -4.936835E-11  -7.040947E-06   0.000000E+00   0.000000E+00   0.000000E+00   0.000000E+00
           676      G      -1.486749E-07  -8.137954E-06   0.000000E+00   0.000000E+00   0.000000E+00   0.000000E+00
           677      G      -1.463642E-07  -7.766378E-06   0.000000E+00   0.000000E+00   0.000000E+00   0.000000E+00
[...]
     270  Z1 = 5.000E-01     8.007735E+04  -3.049988E-02  -1.452983E+04
     271  Z1 = 5.000E-01     3.789088E+04  -2.577813E-01  -1.484516E+04
     272  Z1 = 5.000E-01     7.695253E+04   4.466753E-01  -1.452992E+04
     273  Z1 = 5.000E-01     3.632849E+04  -3.075630E-01  -1.484515E+04
     274  Z1 = 5.000E-01     7.382767E+04   4.222571E-01  -1.452989E+04
     275  Z1 = 5.000E-01     3.476603E+04  -3.438043E-01  -1.484514E+04
     276  Z1 = 5.000E-01     7.070271E+04   3.769032E-01  -1.452987E+04
     277  Z1 = 5.000E-01     3.320353E+04  -3.549485E-01  -1.484514E+04
     278  Z1 = 5.000E-01     6.757772E+04   3.601382E-01  -1.452986E+04
     279  Z1 = 5.000E-01     3.164103E+04  -3.568659E-01  -1.484514E+04
     280  Z1 = 5.000E-01     6.445272E+04   3.565929E-01  -1.452986E+04
     281  Z1 = 5.000E-01     3.007853E+04  -3.568434E-01  -1.484514E+04
     282  Z1 = 5.000E-01     6.132772E+04   3.563597E-01  -1.452986E+04
     283  Z1 = 5.000E-01     2.851603E+04  -3.566966E-01  -1.484514E+04
     284  Z1 = 5.000E-01     5.820272E+04   3.565197E-01  -1.452986E+04
     285  Z1 = 5.000E-01     2.695353E+04  -3.566382E-01  -1.484514E+04
     286  Z1 = 5.000E-01     5.507772E+04   3.566013E-01  -1.452986E+04
     287  Z1 = 5.000E-01     2.539103E+04  -3.566255E-01  -1.484514E+04
     288  Z1 = 5.000E-01     5.195272E+04   3.566233E-01  -1.452986E+04
     289  Z1 = 5.000E-01     2.382853E+04  -3.566242E-01  -1.484514E+04
     290  Z1 = 5.000E-01     4.882772E+04   3.566258E-01  -1.452986E+04
     291  Z1 = 5.000E-01     2.226603E+04  -3.566262E-01  -1.484514E+04
     292  Z1 = 5.000E-01     4.570272E+04   3.566244E-01  -1.452986E+04
     293  Z1 = 5.000E-01     2.070353E+04  -3.566315E-01  -1.484514E+04
     294  Z1 = 5.000E-01     4.257772E+04   3.566216E-01  -1.452986E+04
     295  Z1 = 5.000E-01     1.914103E+04  -3.566397E-01  -1.484514E+04
     296  Z1 = 5.000E-01     3.945272E+04   3.566136E-01  -1.452986E+04
     297  Z1 = 5.000E-01     1.757853E+04  -3.566207E-01  -1.484514E+04
     298  Z1 = 5.000E-01     3.632772E+04   3.566137E-01  -1.452986E+04
     299  Z1 = 5.000E-01     1.601603E+04  -3.563939E-01  -1.484514E+04
     300  Z1 = 5.000E-01     3.320272E+04   3.567258E-01  -1.452986E+04
     301  Z1 = 5.000E-01     1.445353E+04  -3.553758E-01  -1.484514E+04
     302  Z1 = 5.000E-01     3.007772E+04   3.573468E-01  -1.452986E+04
     303  Z1 = 5.000E-01     1.289103E+04  -3.527829E-01  -1.484514E+04
     304  Z1 = 5.000E-01     2.695272E+04   3.593027E-01  -1.452986E+04
     305  Z1 = 5.000E-01     1.132852E+04  -3.523725E-01  -1.484514E+04
     306  Z1 = 5.000E-01     2.382771E+04   3.616454E-01  -1.452986E+04
     307  Z1 = 5.000E-01     9.766011E+03  -3.875953E-01  -1.484513E+04
     308  Z1 = 5.000E-01     2.070270E+04   3.462038E-01  -1.452986E+04
     309  Z1 = 5.000E-01     8.203611E+03  -6.008134E-01  -1.484510E+04
     310  Z1 = 5.000E-01     1.757775E+04   2.160765E-01  -1.452987E+04
     311  Z1 = 5.000E-01     6.641738E+03  -1.285516E+00  -1.484495E+04
     312  Z1 = 5.000E-01     1.445317E+04  -2.653189E-01  -1.452986E+04
     313  Z1 = 5.000E-01     5.079657E+03  -3.580542E-01  -1.484931E+04
     314  Z1 = 5.000E-01     1.132880E+04   5.887537E-01  -1.453124E+04
     315  Z1 = 5.000E-01     3.486682E+03   3.675169E+01  -1.493139E+04
     316  Z1 = 5.000E-01     8.180775E+03   3.081886E+01  -1.456207E+04
     317  Z1 = 5.000E-01     1.685603E+03   1.368235E+02  -1.542264E+04
     318  Z1 = 5.000E-01     4.810638E+03   1.857696E+02  -1.481448E+04
     319  Z1 = 5.000E-01     2.285755E+02  -1.496056E+03  -1.368019E+04
     320  Z1 = 5.000E-01     1.165312E+03  -8.300776E+02  -1.470736E+04
     321  Z1 = 5.000E-01     1.951215E+05   1.453622E+04  -8.573174E+03
     322  Z1 = 5.000E-01     2.392522E+05   3.768610E+04  -1.786841E+03
     323  Z1 = 5.000E-01     1.914702E+05  -3.883305E+02  -1.428368E+04
     324  Z1 = 5.000E-01     2.427338E+05   1.124195E+03  -1.383500E+04
     325  Z1 = 5.000E-01     1.835215E+05  -2.909171E+02  -1.335126E+04
     326  Z1 = 5.000E-01     2.322665E+05  -6.215435E+02  -1.229814E+04
     327  Z1 = 5.000E-01     1.769789E+05  -4.345802E+01  -1.327197E+04
     328  Z1 = 5.000E-01     2.238656E+05  -7.350252E+01  -1.229645E+04
     329  Z1 = 5.000E-01     1.707065E+05  -9.328897E+00  -1.328212E+04
     330  Z1 = 5.000E-01     2.160151E+05  -8.916454E+00  -1.232809E+04
     331  Z1 = 5.000E-01     1.644546E+05  -2.999750E+00  -1.328661E+04
     332  Z1 = 5.000E-01     2.082009E+05  -5.442297E-01  -1.233605E+04
     333  Z1 = 5.000E-01     1.582047E+05  -1.630445E+00  -1.328744E+04
     334  Z1 = 5.000E-01     2.003886E+05   1.353721E+00  -1.233767E+04
     335  Z1 = 5.000E-01     1.519548E+05  -1.483168E+00  -1.328744E+04
     336  Z1 = 5.000E-01     1.925762E+05   1.638549E+00  -1.233776E+04
     337  Z1 = 5.000E-01     1.457049E+05  -1.526329E+00  -1.328739E+04
     338  Z1 = 5.000E-01     1.847638E+05   1.612527E+00  -1.233769E+04
     339  Z1 = 5.000E-01     1.394549E+05  -1.555362E+00  -1.328737E+04
     340  Z1 = 5.000E-01     1.769513E+05   1.579371E+00  -1.233765E+04
     341  Z1 = 5.000E-01     1.332049E+05  -1.564098E+00  -1.328736E+04
     342  Z1 = 5.000E-01     1.691388E+05   1.567643E+00  -1.233764E+04
     343  Z1 = 5.000E-01     1.269549E+05  -1.565554E+00  -1.328736E+04
     344  Z1 = 5.000E-01     1.613263E+05   1.565266E+00  -1.233764E+04
     345  Z1 = 5.000E-01     1.207049E+05  -1.565517E+00  -1.328736E+04
     346  Z1 = 5.000E-01     1.535138E+05   1.565145E+00  -1.233764E+04
     347  Z1 = 5.000E-01     1.144549E+05  -1.565397E+00  -1.328736E+04
     348  Z1 = 5.000E-01     1.457013E+05   1.565267E+00  -1.233764E+04
     349  Z1 = 5.000E-01     1.082049E+05  -1.565352E+00  -1.328736E+04
     350  Z1 = 5.000E-01     1.378888E+05   1.565326E+00  -1.233764E+04
     351  Z1 = 5.000E-01     1.019549E+05  -1.565342E+00  -1.328736E+04
     352  Z1 = 5.000E-01     1.300763E+05   1.565341E+00  -1.233764E+04
     353  Z1 = 5.000E-01     9.570492E+04  -1.565341E+00  -1.328736E+04
     354  Z1 = 5.000E-01     1.222638E+05   1.565342E+00  -1.233764E+04
     355  Z1 = 5.000E-01     8.945492E+04  -1.565342E+00  -1.328736E+04
     356  Z1 = 5.000E-01     1.144513E+05   1.565341E+00  -1.233764E+04
     357  Z1 = 5.000E-01     8.320492E+04  -1.565348E+00  -1.328736E+04
     358  Z1 = 5.000E-01     1.066388E+05   1.565339E+00  -1.233764E+04
     359  Z1 = 5.000E-01     7.695492E+04  -1.565354E+00  -1.328736E+04
     360  Z1 = 5.000E-01     9.882633E+04   1.565333E+00  -1.233764E+04
     361  Z1 = 5.000E-01     7.070492E+04  -1.565340E+00  -1.328736E+04
     362  Z1 = 5.000E-01     9.101383E+04   1.565332E+00  -1.233764E+04
     363  Z1 = 5.000E-01     6.445492E+04  -1.565166E+00  -1.328736E+04
     364  Z1 = 5.000E-01     8.320133E+04   1.565406E+00  -1.233764E+04
     365  Z1 = 5.000E-01     5.820491E+04  -1.564368E+00  -1.328736E+04
     366  Z1 = 5.000E-01     7.538883E+04   1.565833E+00  -1.233764E+04
     367  Z1 = 5.000E-01     5.195491E+04  -1.562261E+00  -1.328736E+04
     368  Z1 = 5.000E-01     6.757633E+04   1.567244E+00  -1.233764E+04
     369  Z1 = 5.000E-01     4.570491E+04  -1.561774E+00  -1.328736E+04
     370  Z1 = 5.000E-01     5.976383E+04   1.569173E+00  -1.233763E+04
     371  Z1 = 5.000E-01     3.945490E+04  -1.592982E+00  -1.328736E+04
     372  Z1 = 5.000E-01     5.195132E+04   1.558265E+00  -1.233763E+04
     373  Z1 = 5.000E-01     3.320499E+04  -1.802496E+00  -1.328743E+04
     374  Z1 = 5.000E-01     4.413885E+04   1.451467E+00  -1.233769E+04
     375  Z1 = 5.000E-01     2.695567E+04  -2.314480E+00  -1.328769E+04
     376  Z1 = 5.000E-01     3.632667E+04   1.038462E+00  -1.233797E+04
     377  Z1 = 5.000E-01     2.070430E+04   3.927936E+00  -1.328932E+04
     378  Z1 = 5.000E-01     2.851474E+04   2.819190E+00  -1.233820E+04
     379  Z1 = 5.000E-01     1.437683E+04   9.295687E+01  -1.331061E+04
     380  Z1 = 5.000E-01     2.067377E+04   4.738195E+01  -1.233187E+04
     381  Z1 = 5.000E-01     7.472634E+03   3.821081E+02  -1.352169E+04
     382  Z1 = 5.000E-01     1.250356E+04   3.149594E+02  -1.232553E+04
     383  Z1 = 5.000E-01     1.045052E+03  -4.497418E+03  -1.279604E+04
     384  Z1 = 5.000E-01     3.526811E+03  -1.408467E+03  -1.257915E+04
     385  Z1 = 5.000E-01     3.433851E+05   2.012380E+04  -1.191463E+04
     386  Z1 = 5.000E-01     3.882397E+05   5.511579E+04  -1.551485E+04
     387  Z1 = 5.000E-01     3.336432E+05  -1.065613E+03  -9.542629E+03
     388  Z1 = 5.000E-01     3.859916E+05  -5.929137E+02  -7.989416E+03
     389  Z1 = 5.000E-01     3.208172E+05  -2.784358E+02  -9.654474E+03
     390  Z1 = 5.000E-01     3.707382E+05  -5.142673E+02  -7.721857E+03
     391  Z1 = 5.000E-01     3.097660E+05  -3.077190E+01  -9.832881E+03
     392  Z1 = 5.000E-01     3.581760E+05  -1.529679E+01  -8.212413E+03
     393  Z1 = 5.000E-01     2.988306E+05  -9.414559E+00  -9.857985E+03
     394  Z1 = 5.000E-01     3.456919E+05   1.093776E+00  -8.252823E+03
     395  Z1 = 5.000E-01     2.878952E+05  -6.115966E+00  -9.863059E+03
     396  Z1 = 5.000E-01     3.331974E+05   4.756075E+00  -8.260306E+03
     397  Z1 = 5.000E-01     2.769581E+05  -5.485900E+00  -9.863806E+03
     398  Z1 = 5.000E-01     3.206983E+05   5.417043E+00  -8.261466E+03
     399  Z1 = 5.000E-01     2.660206E+05  -5.428740E+00  -9.863767E+03
     400  Z1 = 5.000E-01     3.081983E+05   5.515328E+00  -8.261476E+03
     401  Z1 = 5.000E-01     2.550831E+05  -5.456254E+00  -9.863694E+03
     402  Z1 = 5.000E-01     2.956982E+05   5.498240E+00  -8.261387E+03
     403  Z1 = 5.000E-01     2.441456E+05  -5.472293E+00  -9.863666E+03
     404  Z1 = 5.000E-01     2.831982E+05   5.483208E+00  -8.261349E+03
     405  Z1 = 5.000E-01     2.332081E+05  -5.476865E+00  -9.863661E+03
     406  Z1 = 5.000E-01     2.706982E+05   5.478270E+00  -8.261340E+03
     407  Z1 = 5.000E-01     2.222706E+05  -5.477566E+00  -9.863660E+03
     408  Z1 = 5.000E-01     2.581982E+05   5.477351E+00  -8.261339E+03
     409  Z1 = 5.000E-01     2.113331E+05  -5.477522E+00  -9.863660E+03
     410  Z1 = 5.000E-01     2.456982E+05   5.477333E+00  -8.261339E+03
     411  Z1 = 5.000E-01     2.003956E+05  -5.477453E+00  -9.863661E+03
     412  Z1 = 5.000E-01     2.331982E+05   5.477392E+00  -8.261339E+03
     413  Z1 = 5.000E-01     1.894581E+05  -5.477428E+00  -9.863661E+03
     414  Z1 = 5.000E-01     2.206982E+05   5.477417E+00  -8.261339E+03
     415  Z1 = 5.000E-01     1.785206E+05  -5.477424E+00  -9.863661E+03
     416  Z1 = 5.000E-01     2.081982E+05   5.477423E+00  -8.261339E+03
     417  Z1 = 5.000E-01     1.675831E+05  -5.477423E+00  -9.863661E+03
     418  Z1 = 5.000E-01     1.956982E+05   5.477424E+00  -8.261339E+03
     419  Z1 = 5.000E-01     1.566456E+05  -5.477424E+00  -9.863661E+03
     420  Z1 = 5.000E-01     1.831982E+05   5.477423E+00  -8.261339E+03
     421  Z1 = 5.000E-01     1.457081E+05  -5.477426E+00  -9.863661E+03
     422  Z1 = 5.000E-01     1.706982E+05   5.477422E+00  -8.261339E+03
     423  Z1 = 5.000E-01     1.347706E+05  -5.477430E+00  -9.863661E+03
     424  Z1 = 5.000E-01     1.581982E+05   5.477420E+00  -8.261339E+03
     425  Z1 = 5.000E-01     1.238331E+05  -5.477426E+00  -9.863661E+03
     426  Z1 = 5.000E-01     1.456982E+05   5.477418E+00  -8.261339E+03
     427  Z1 = 5.000E-01     1.128956E+05  -5.477339E+00  -9.863661E+03
     428  Z1 = 5.000E-01     1.331982E+05   5.477445E+00  -8.261339E+03
     429  Z1 = 5.000E-01     1.019581E+05  -5.476914E+00  -9.863660E+03
     430  Z1 = 5.000E-01     1.206982E+05   5.477621E+00  -8.261339E+03
     431  Z1 = 5.000E-01     9.102058E+04  -5.475706E+00  -9.863658E+03
     432  Z1 = 5.000E-01     1.081982E+05   5.478239E+00  -8.261338E+03
     433  Z1 = 5.000E-01     8.008308E+04  -5.475029E+00  -9.863653E+03
     434  Z1 = 5.000E-01     9.569818E+04   5.479268E+00  -8.261334E+03
     435  Z1 = 5.000E-01     6.914558E+04  -5.492247E+00  -9.863661E+03
     436  Z1 = 5.000E-01     8.319818E+04   5.475242E+00  -8.261333E+03
     437  Z1 = 5.000E-01     5.820807E+04  -5.625407E+00  -9.863792E+03
     438  Z1 = 5.000E-01     7.069815E+04   5.426420E+00  -8.261400E+03
     439  Z1 = 5.000E-01     4.727075E+04  -5.933924E+00  -9.864378E+03
     440  Z1 = 5.000E-01     5.819803E+04   5.207029E+00  -8.261814E+03
     441  Z1 = 5.000E-01     3.633361E+04  -4.754813E-01  -9.863232E+03
     442  Z1 = 5.000E-01     4.569817E+04   6.073924E+00  -8.261888E+03
     443  Z1 = 5.000E-01     2.536542E+04   7.838986E+01  -9.815163E+03
     444  Z1 = 5.000E-01     3.320299E+04   3.002264E+01  -8.234285E+03
     445  Z1 = 5.000E-01     1.395612E+04   4.511262E+02  -9.555783E+03
     446  Z1 = 5.000E-01     2.064802E+04   2.232407E+02  -7.989177E+03
     447  Z1 = 5.000E-01     2.300703E+03  -5.715092E+03  -1.046504E+04
     448  Z1 = 5.000E-01     7.083868E+03  -1.012337E+03  -8.292186E+03
     449  Z1 = 5.000E-01     4.917043E+05   1.606525E+04  -1.210770E+04
     450  Z1 = 5.000E-01     5.508840E+05   6.482579E+04  -3.156971E+04
     451  Z1 = 5.000E-01     4.726897E+05  -1.285660E+03  -3.084322E+03
     452  Z1 = 5.000E-01     5.223865E+05  -3.153887E+03   7.086909E+02
     453  Z1 = 5.000E-01     4.580252E+05  -1.378595E+01  -4.379922E+03
     454  Z1 = 5.000E-01     5.091432E+05   1.169957E+02  -2.212970E+03
     455  Z1 = 5.000E-01     4.426216E+05   1.502151E+01  -4.536027E+03
     456  Z1 = 5.000E-01     4.924418E+05  -2.128237E+01  -2.300640E+03
     457  Z1 = 5.000E-01     4.270212E+05   2.042667E+01  -4.554564E+03
     458  Z1 = 5.000E-01     4.753121E+05  -2.112091E+01  -2.315889E+03
     459  Z1 = 5.000E-01     4.114003E+05   2.090624E+01  -4.557068E+03
     460  Z1 = 5.000E-01     4.581318E+05  -2.109026E+01  -2.317548E+03
     461  Z1 = 5.000E-01     3.957753E+05   2.101372E+01  -4.557380E+03
     462  Z1 = 5.000E-01     4.409445E+05  -2.101631E+01  -2.317823E+03
     463  Z1 = 5.000E-01     3.801501E+05   2.101604E+01  -4.557325E+03
     464  Z1 = 5.000E-01     4.237566E+05  -2.100231E+01  -2.317794E+03
     465  Z1 = 5.000E-01     3.645249E+05   2.100757E+01  -4.557276E+03
     466  Z1 = 5.000E-01     4.065689E+05  -2.100168E+01  -2.317759E+03
     467  Z1 = 5.000E-01     3.488999E+05   2.100377E+01  -4.557260E+03
     468  Z1 = 5.000E-01     3.893813E+05  -2.100237E+01  -2.317746E+03
     469  Z1 = 5.000E-01     3.332749E+05   2.100283E+01  -4.557257E+03
     470  Z1 = 5.000E-01     3.721938E+05  -2.100269E+01  -2.317743E+03
     471  Z1 = 5.000E-01     3.176499E+05   2.100273E+01  -4.557257E+03
     472  Z1 = 5.000E-01     3.550063E+05  -2.100277E+01  -2.317743E+03
     473  Z1 = 5.000E-01     3.020249E+05   2.100275E+01  -4.557257E+03
     474  Z1 = 5.000E-01     3.378188E+05  -2.100278E+01  -2.317743E+03
     475  Z1 = 5.000E-01     2.863999E+05   2.100277E+01  -4.557257E+03
     476  Z1 = 5.000E-01     3.206313E+05  -2.100278E+01  -2.317743E+03
     477  Z1 = 5.000E-01     2.707749E+05   2.100277E+01  -4.557257E+03
     478  Z1 = 5.000E-01     3.034438E+05  -2.100278E+01  -2.317743E+03
     479  Z1 = 5.000E-01     2.551499E+05   2.100277E+01  -4.557257E+03
     480  Z1 = 5.000E-01     2.862563E+05  -2.100277E+01  -2.317743E+03
     481  Z1 = 5.000E-01     2.395249E+05   2.100277E+01  -4.557257E+03
     482  Z1 = 5.000E-01     2.690688E+05  -2.100277E+01  -2.317743E+03
     483  Z1 = 5.000E-01     2.238999E+05   2.100277E+01  -4.557257E+03
     484  Z1 = 5.000E-01     2.518813E+05  -2.100277E+01  -2.317743E+03
     485  Z1 = 5.000E-01     2.082749E+05   2.100277E+01  -4.557257E+03
     486  Z1 = 5.000E-01     2.346938E+05  -2.100277E+01  -2.317743E+03
     487  Z1 = 5.000E-01     1.926499E+05   2.100277E+01  -4.557257E+03
     488  Z1 = 5.000E-01     2.175063E+05  -2.100277E+01  -2.317743E+03
     489  Z1 = 5.000E-01     1.770249E+05   2.100277E+01  -4.557257E+03
     490  Z1 = 5.000E-01     2.003188E+05  -2.100277E+01  -2.317743E+03
     491  Z1 = 5.000E-01     1.613999E+05   2.100279E+01  -4.557257E+03
     492  Z1 = 5.000E-01     1.831313E+05  -2.100277E+01  -2.317743E+03
     493  Z1 = 5.000E-01     1.457749E+05   2.100288E+01  -4.557257E+03
     494  Z1 = 5.000E-01     1.659438E+05  -2.100276E+01  -2.317743E+03
     495  Z1 = 5.000E-01     1.301499E+05   2.100318E+01  -4.557255E+03
     496  Z1 = 5.000E-01     1.487563E+05  -2.100271E+01  -2.317742E+03
     497  Z1 = 5.000E-01     1.145249E+05   2.100347E+01  -4.557252E+03
     498  Z1 = 5.000E-01     1.315688E+05  -2.100259E+01  -2.317741E+03
     499  Z1 = 5.000E-01     9.889994E+04   2.099974E+01  -4.557254E+03
     500  Z1 = 5.000E-01     1.143814E+05  -2.100271E+01  -2.317739E+03
     501  Z1 = 5.000E-01     8.327483E+04   2.096305E+01  -4.557336E+03
     502  Z1 = 5.000E-01     9.719385E+04  -2.100596E+01  -2.317755E+03
     503  Z1 = 5.000E-01     6.764905E+04   2.085979E+01  -4.557812E+03
     504  Z1 = 5.000E-01     8.000574E+04  -2.102523E+01  -2.317910E+03
     505  Z1 = 5.000E-01     5.202349E+04   2.199518E+01  -4.557014E+03
     506  Z1 = 5.000E-01     6.281549E+04  -2.100946E+01  -2.318284E+03
     507  Z1 = 5.000E-01     3.644752E+04   5.096150E+01  -4.516991E+03
     508  Z1 = 5.000E-01     4.564285E+04  -1.949828E+01  -2.312042E+03
     509  Z1 = 5.000E-01     2.126748E+04   1.462273E+02  -4.126718E+03
     510  Z1 = 5.000E-01     2.886700E+04  -3.483914E+00  -2.193348E+03
     511  Z1 = 5.000E-01     5.415929E+03  -3.218013E+03  -5.465117E+03
     512  Z1 = 5.000E-01     1.366279E+04  -5.087504E+01  -1.954967E+03

1                                                            F O R C E S   A N D   M O M E N T S   I N   S P C   F O R C E S
                                                                                                                                                          PAGE    4
0
      POINT ID.   TYPE          T1             T2             T3             R1             R2             R3
             1      G       0.000000E+00   0.000000E+00   0.000000E+00   0.000000E+00   0.000000E+00   0.000000E+00
            34      G       0.000000E+00   0.000000E+00   0.000000E+00   0.000000E+00   0.000000E+00   0.000000E+00
            67      G       0.000000E+00   0.000000E+00   0.000000E+00   0.000000E+00   0.000000E+00   0.000000E+00
           100      G       0.000000E+00   0.000000E+00   0.000000E+00   0.000000E+00   0.000000E+00   0.000000E+00
           133      G       0.000000E+00   0.000000E+00   0.000000E+00   0.000000E+00   0.000000E+00   0.000000E+00
           166      G       0.000000E+00   0.000000E+00   0.000000E+00   0.000000E+00   0.000000E+00   0.000000E+00
           199      G       0.000000E+00   0.000000E+00   0.000000E+00   0.000000E+00   0.000000E+00   0.000000E+00
           232      G       0.000000E+00   0.000000E+00   0.000000E+00   0.000000E+00   0.000000E+00   0.000000E+00
           265      G       0.000000E+00   0.000000E+00   0.000000E+00   0.000000E+00   0.000000E+00   0.000000E+00
           302      G       0.000000E+00   0.000000E+00   0.000000E+00   0.000000E+00   0.000000E+00   0.000000E+00
           430      G       0.000000E+00   0.000000E+00   0.000000E+00   0.000000E+00   0.000000E+00   0.000000E+00
           527      G       0.000000E+00   0.000000E+00   0.000000E+00   0.000000E+00   0.000000E+00   0.000000E+00
           624      G       0.000000E+00   0.000000E+00   0.000000E+00   0.000000E+00   0.000000E+00   0.000000E+00
           721      G       0.000000E+00   0.000000E+00   0.000000E+00   0.000000E+00   0.000000E+00   0.000000E+00
           818      G       0.000000E+00   0.000000E+00   0.000000E+00   0.000000E+00   0.000000E+00   0.000000E+00
           915      G       0.000000E+00   0.000000E+00   0.000000E+00   0.000000E+00   0.000000E+00   0.000000E+00
          1012      G       0.000000E+00   0.000000E+00   0.000000E+00   0.000000E+00   0.000000E+00   0.000000E+00

1                                         * * * E N D   O F   J O B * * *
